<?xml version="1.0" encoding="UTF-8"?>

<!-- generated on 2023-02-22 02:08:17 by Eclipse SUMO polyconvert Version 1.11.0
<configuration xmlns:xsi="http://www.w3.org/2001/XMLSchema-instance" xsi:noNamespaceSchemaLocation="http://sumo.dlr.de/xsd/polyconvertConfiguration.xsd">

    <input>
        <net-file value="mtl.net.xml"/>
        <osm-files value="mtl.osm"/>
    </input>

    <output>
        <output-file value="mtl.poly.xml"/>
    </output>

    <processing>
        <poi-layer-offset value="5"/>
    </processing>

</configuration>
-->

<additional xmlns:xsi="http://www.w3.org/2001/XMLSchema-instance" xsi:noNamespaceSchemaLocation="http://sumo.dlr.de/xsd/additional_file.xsd">
    <location netOffset="-609072.22,-5040860.36" convBoundary="-5799.27,-8642.84,3805.91,12333.44" origBoundary="-73.679634,45.435850,-73.554880,45.623965" projParameter="+proj=utm +zone=18 +ellps=WGS84 +datum=WGS84 +units=m +no_defs"/>

    <poly id="1015377886" type="building" color="255,230,230" fill="1" layer="-1.00" shape="1170.619583,847.824377 1176.660532,844.152128 1170.136651,833.079881 1169.496239,833.513146 1168.007106,831.564394 1163.728063,834.111862 1166.083301,837.453868 1164.693921,838.274039 1170.619583,847.824377"/>
    <poly id="1015377887" type="building" color="255,230,230" fill="1" layer="-1.00" shape="1245.133458,822.930148 1258.120481,815.212761 1272.034068,837.417144 1258.978337,845.488913 1245.133458,822.930148"/>
    <poly id="1015377888" type="building" color="255,230,230" fill="1" layer="-1.00" shape="1216.203915,848.281492 1218.586720,846.945376 1229.024320,862.909622 1225.958733,864.867172 1216.203915,848.281492"/>
    <poly id="1080811990" type="leisure" color="207,245,201" fill="1" layer="-2.00" shape="766.288824,1292.409623 781.320754,1316.355039 819.259170,1292.448829 804.394450,1268.772966 766.288824,1292.409623"/>
    <poly id="1080811990#1" type="sport" color="79,230,125" fill="1" layer="-2.00" shape="766.288824,1292.409623 781.320754,1316.355039 819.259170,1292.448829 804.394450,1268.772966 766.288824,1292.409623"/>
    <poly id="1080811991" type="leisure" color="207,245,201" fill="1" layer="-2.00" shape="850.994108,1262.377422 858.678376,1264.745892 859.384102,1263.702521 860.201514,1262.972275 860.893215,1262.728802 861.952946,1262.880742 862.110623,1261.016503 861.960212,1258.902374 861.561072,1256.717204 861.029190,1254.974232 860.615828,1253.600071 860.072062,1252.534790 850.509167,1257.957013 850.864536,1259.074555 851.147496,1260.757597 850.994108,1262.377422"/>
    <poly id="1080811992" type="leisure" color="207,245,201" fill="1" layer="-2.00" shape="843.514039,1255.044979 846.724141,1242.599006 844.978353,1242.368362 842.862993,1242.275710 840.538163,1242.546119 837.534522,1243.215815 834.672054,1244.299171 832.443117,1245.338069 830.141775,1246.942468 828.254328,1248.554122 826.781752,1250.117484 825.823618,1251.745430 824.753059,1253.993739 837.941246,1258.336780 838.733262,1257.272693 839.468860,1256.307634 840.566044,1255.660083 841.967791,1255.017871 843.514039,1255.044979"/>
    <poly id="1080811993" type="leisure" color="207,245,201" fill="1" layer="-2.00" shape="837.019848,1279.257734 840.262889,1280.081393 842.875694,1280.316123 845.662818,1279.964915 848.392337,1279.334871 851.760432,1277.926993 854.766360,1276.234939 857.125464,1274.009228 859.173153,1271.277967 860.485210,1268.622712 848.462613,1264.633452 847.158511,1265.944162 846.042398,1266.780303 844.729477,1267.257375 843.197292,1267.319417 841.562010,1267.024033 837.019848,1279.257734"/>
    <poly id="1097785758" type="tourism" color="207,245,201" fill="0" layer="-2.00" shape="1505.547094,723.798179 1496.407102,709.145466"/>
    <poly id="1097785759" type="tourism" color="207,245,201" fill="0" layer="-2.00" shape="1504.855635,747.945963 1513.738037,743.090578 1515.618845,743.646066 1521.640432,754.820960"/>
    <poly id="1097786627" type="tourism" color="207,245,201" fill="0" layer="-2.00" shape="1528.053127,1217.696788 1544.051734,1208.399498"/>
    <poly id="1097787684" type="tourism" color="207,245,201" fill="0" layer="-2.00" shape="1722.561754,1143.327831 1731.000657,1137.909269"/>
    <poly id="1097787954" type="building" color="255,230,230" fill="1" layer="-1.00" shape="2146.518533,878.938824 2143.242156,873.824210 2147.429846,871.164644 2150.706222,876.279261 2146.518533,878.938824"/>
    <poly id="112975010" type="building" color="255,230,230" fill="1" layer="-1.00" shape="1113.624118,863.670046 1111.016420,865.357869 1114.918411,871.371959 1112.144953,873.156887 1118.351810,882.712116 1123.740770,879.239509 1113.624118,863.670046"/>
    <poly id="112975011" type="building" color="255,230,230" fill="1" layer="-1.00" shape="1112.144953,873.156887 1109.266845,875.117787 1103.056844,866.184847 1096.355642,870.090053 1102.481695,879.799429 1099.371641,881.622901 1105.287788,890.828502 1118.351810,882.712116 1112.144953,873.156887"/>
    <poly id="112975012" type="building" color="255,230,230" fill="1" layer="-1.00" shape="1124.263445,865.057236 1120.500282,867.591572 1115.421934,858.722960 1111.827462,860.549026 1113.624118,863.670046 1123.740770,879.239509 1130.220183,875.063719 1124.263445,865.057236"/>
    <poly id="112975013" type="building" color="255,230,230" fill="1" layer="-1.00" shape="1090.074658,882.093001 1086.898422,884.126465 1088.518386,887.077677 1086.185218,888.703655 1092.297796,898.735066 1098.628978,894.990052 1090.074658,882.093001"/>
    <poly id="112975015" type="building" color="255,230,230" fill="1" layer="-1.00" shape="1138.919781,854.801815 1144.960463,864.476395 1157.414251,856.860564 1151.353467,847.885745 1149.384210,848.806857 1144.628822,840.232839 1137.450968,844.585263 1142.332492,852.650289 1138.919781,854.801815"/>
    <poly id="112975017" type="building" color="255,230,230" fill="1" layer="-1.00" shape="1176.023840,819.492018 1179.599740,825.389284 1181.191404,824.172601 1184.761049,829.980855 1183.165288,830.986316 1187.653747,837.855362 1195.947880,832.666915 1191.130639,824.947483 1190.003663,825.950073 1186.939114,821.184218 1188.060229,820.514918 1185.044293,815.649902 1184.004207,816.153930 1183.264624,814.673992 1176.023840,819.492018"/>
    <poly id="112975018" type="building" color="255,230,230" fill="1" layer="-1.00" shape="1085.939484,902.690759 1092.297796,898.735066 1086.185218,888.703655 1083.333444,884.274984 1081.027415,885.690290 1080.970608,887.145111 1079.061901,888.178440 1080.651406,890.640137 1078.796783,891.707755 1085.939484,902.690759"/>
    <poly id="112975019" type="building" color="255,230,230" fill="1" layer="-1.00" shape="1193.879790,800.113535 1180.918590,808.142675 1184.816452,814.390112 1187.193797,812.920530 1193.705378,823.359130 1191.130639,824.947483 1195.947880,832.666915 1209.406545,824.335388 1204.900921,817.110404 1202.570823,818.558584 1195.572899,807.344616 1197.602902,806.080079 1193.879790,800.113535"/>
    <poly id="112975022" type="building" color="255,230,230" fill="1" layer="-1.00" shape="1170.374541,848.875816 1164.348131,839.723779 1161.921989,841.303642 1156.238018,832.668838 1150.294693,836.565085 1155.818957,844.952588 1151.353467,847.885745 1157.414251,856.860564 1170.374541,848.875816"/>
    <poly id="112975023" type="building" color="255,230,230" fill="1" layer="-1.00" shape="1183.175741,840.610468 1187.653747,837.855362 1183.165288,830.986316 1181.161265,832.106843 1177.587906,826.509675 1179.599740,825.389284 1176.023840,819.492018 1170.943880,822.269888 1183.175741,840.610468"/>
    <poly id="112975025" type="building" color="255,230,230" fill="1" layer="-1.00" shape="1099.371641,881.622901 1095.914249,883.651420 1089.995935,874.568034 1086.190810,876.379301 1090.074658,882.093001 1098.628978,894.990052 1105.287788,890.828502 1099.371641,881.622901"/>
    <poly id="112975026" type="building" color="255,230,230" fill="1" layer="-1.00" shape="1170.943880,822.269888 1165.015570,826.199726 1169.110440,832.350598 1171.210523,831.098399 1174.752449,836.706123 1173.187149,837.756575 1177.083241,844.103995 1183.175741,840.610468 1170.943880,822.269888"/>
    <poly id="112975028" type="building" color="255,230,230" fill="1" layer="-1.00" shape="1133.689527,857.688203 1139.540043,867.959544 1144.960463,864.476395 1138.919781,854.801815 1134.794832,847.694705 1131.766366,849.764084 1135.654289,856.578084 1133.689527,857.688203"/>
    <poly id="112975029" type="building" color="255,230,230" fill="1" layer="-1.00" shape="1124.263445,865.057236 1130.220183,875.063719 1137.721520,870.528051 1137.353290,869.254683 1139.540043,867.959544 1133.689527,857.688203 1130.972679,858.918462 1126.698751,851.842078 1123.322752,853.683091 1125.021196,856.613465 1122.951785,858.344083 1126.232108,863.724920 1124.263445,865.057236"/>
    <poly id="112975692" type="building" color="255,230,230" fill="1" layer="-1.00" shape="1097.173028,945.395824 1093.469635,940.085360 1082.816814,947.477348 1086.512597,952.776560 1097.173028,945.395824"/>
    <poly id="112976242" type="building" color="255,230,230" fill="1" layer="-1.00" shape="1097.477906,822.223328 1103.728186,832.423863 1106.160563,830.488468 1108.858102,834.803307 1112.585354,832.090522 1104.017103,818.204144 1097.477906,822.223328"/>
    <poly id="112976243" type="building" color="255,230,230" fill="1" layer="-1.00" shape="1072.498730,837.976309 1078.914991,848.068604 1081.606839,846.482264 1085.028171,851.843328 1088.616391,849.928232 1079.000406,833.867536 1072.498730,837.976309"/>
    <poly id="112976244" type="building" color="255,230,230" fill="1" layer="-1.00" shape="1091.634379,825.776876 1101.436219,841.485239 1104.456869,839.415708 1101.187837,833.835046 1103.728186,832.423863 1097.477906,822.223328 1091.634379,825.776876"/>
    <poly id="112976245" type="building" color="255,230,230" fill="1" layer="-1.00" shape="1085.290249,829.810613 1091.912290,840.195478 1094.609220,838.320291 1100.534982,846.981512 1103.472846,845.177241 1091.634379,825.776876 1085.290249,829.810613"/>
    <poly id="112976246" type="building" color="255,230,230" fill="1" layer="-1.00" shape="1104.017103,818.204144 1112.585354,832.090522 1116.233144,829.898660 1113.897010,825.912449 1115.376199,825.316108 1109.104257,815.015161 1104.017103,818.204144"/>
    <poly id="112976247" type="building" color="255,230,230" fill="1" layer="-1.00" shape="1079.000406,833.867536 1088.616391,849.928232 1092.271777,847.747603 1088.698156,842.161597 1091.912290,840.195478 1085.290249,829.810613 1079.000406,833.867536"/>
    <poly id="112976248" type="building" color="255,230,230" fill="1" layer="-1.00" shape="1053.968992,849.041788 1061.921695,862.839493 1065.269554,860.820144 1062.840073,856.810086 1066.345692,854.704604 1060.323042,845.330475 1053.968992,849.041788"/>
    <poly id="112976249" type="building" color="255,230,230" fill="1" layer="-1.00" shape="1027.977690,865.054991 1038.879259,882.205043 1045.879915,878.149452 1043.021659,873.198370 1039.367813,871.289426 1041.366919,870.446596 1034.755970,860.762107 1027.977690,865.054991"/>
    <poly id="112976250" type="building" color="255,230,230" fill="1" layer="-1.00" shape="1034.755970,860.762107 1041.366919,870.446596 1043.749092,869.143744 1046.210209,873.132123 1052.802428,869.202724 1050.109945,865.043582 1053.108703,863.329263 1047.301585,853.247693 1034.755970,860.762107"/>
    <poly id="112976251" type="building" color="255,230,230" fill="1" layer="-1.00" shape="1053.108703,863.329263 1056.684019,861.258339 1060.572790,867.583328 1063.530744,865.968316 1061.921695,862.839493 1053.968992,849.041788 1047.301585,853.247693 1053.108703,863.329263"/>
    <poly id="112976252" type="building" color="255,230,230" fill="1" layer="-1.00" shape="1060.323042,845.330475 1066.345692,854.704604 1067.763785,857.141060 1070.502485,855.555539 1073.338666,860.428454 1076.708397,858.498400 1075.906121,857.028488 1066.413907,841.481189 1060.323042,845.330475"/>
    <poly id="112976253" type="building" color="255,230,230" fill="1" layer="-1.00" shape="1109.104257,815.015161 1115.376199,825.316108 1118.394128,823.402120 1120.790396,827.078222 1123.831756,825.164648 1115.313697,811.090212 1109.104257,815.015161"/>
    <poly id="112976254" type="school" color="237,199,199" fill="1" layer="-2.00" shape="1232.271828,772.005783 1212.860230,741.236596 1119.584330,799.685405 1138.996180,830.454302 1232.271828,772.005783"/>
    <poly id="112976255" type="building" color="255,230,230" fill="1" layer="-1.00" shape="1075.906121,857.028488 1079.193265,854.908062 1076.234081,849.921852 1078.914991,848.068604 1072.498730,837.976309 1066.413907,841.481189 1075.906121,857.028488"/>
    <poly id="1133153247" type="tourism" color="207,245,201" fill="1" layer="-2.00" shape="1471.703552,893.966029 1473.837660,892.558945 1477.426010,890.199544 1469.381036,877.699891 1464.077805,880.729193 1471.703552,893.966029"/>
    <poly id="113526565" type="building" color="255,230,230" fill="1" layer="-1.00" shape="1593.615191,1210.763324 1590.056706,1204.799426 1570.055845,1217.337692 1573.408585,1223.009005 1593.615191,1210.763324"/>
    <poly id="113526566" type="building" color="255,230,230" fill="1" layer="-1.00" shape="1573.408585,1223.009005 1576.870650,1228.682250 1597.077245,1216.436580 1593.615191,1210.763324 1573.408585,1223.009005"/>
    <poly id="113526567" type="building" color="255,230,230" fill="1" layer="-1.00" shape="1570.055845,1217.337692 1590.056706,1204.799426 1585.356179,1197.592925 1565.476368,1209.911079 1570.055845,1217.337692"/>
    <poly id="113526568" type="building" color="255,230,230" fill="1" layer="-1.00" shape="1624.179004,1240.185996 1627.931022,1237.840688 1632.457385,1234.997850 1636.417515,1232.811805 1620.115773,1207.063714 1608.378407,1214.368993 1624.179004,1240.185996"/>
    <poly id="113526569" type="building" color="255,230,230" fill="1" layer="-1.00" shape="1597.077245,1216.436580 1576.870650,1228.682250 1578.854418,1234.018238 1599.986662,1221.111012 1597.077245,1216.436580"/>
    <poly id="113526570" type="building" color="255,230,230" fill="1" layer="-1.00" shape="1643.006304,1228.193948 1655.779236,1220.640307 1640.095817,1195.269818 1627.057924,1202.785474 1643.006304,1228.193948"/>
    <poly id="113526571" type="building" color="255,230,230" fill="1" layer="-1.00" shape="1578.854418,1234.018238 1582.412469,1240.448876 1585.078745,1246.063628 1594.030686,1240.331662 1607.088788,1232.549583 1599.986662,1221.111012 1578.854418,1234.018238"/>
    <poly id="113526572" type="building" color="255,230,230" fill="1" layer="-1.00" shape="1636.417515,1232.811805 1640.864615,1230.034252 1643.006304,1228.193948 1627.057924,1202.785474 1620.115773,1207.063714 1636.417515,1232.811805"/>
    <poly id="113526573" type="building" color="255,230,230" fill="1" layer="-1.00" shape="1602.226440,1218.138884 1618.043258,1243.922818 1624.179004,1240.185996 1608.378407,1214.368993 1602.226440,1218.138884"/>
    <poly id="113526602" type="building" color="255,230,230" fill="1" layer="-1.00" shape="1585.078745,1246.063628 1592.179264,1258.035585 1594.628779,1259.112347 1602.984580,1254.403396 1594.030686,1240.331662 1585.078745,1246.063628"/>
    <poly id="128246078" type="tourism" color="207,245,201" fill="1" layer="-2.00" shape="857.313917,1215.590887 959.866006,1152.444791 966.333907,1148.457564 937.054497,1099.957310 936.128244,1098.429675 932.666703,1092.690137 926.237622,1096.689194 887.189478,1120.975413 830.047608,1156.502307 824.732255,1159.809748 828.501576,1166.265858 857.313917,1215.590887"/>
    <poly id="132553480" type="building" color="255,230,230" fill="1" layer="-1.00" shape="1592.112061,1291.051599 1606.161650,1314.715042 1591.788355,1323.551880 1588.259040,1319.922259 1593.718945,1316.851383 1592.595138,1315.020100 1581.667797,1297.246204 1592.112061,1291.051599"/>
    <poly id="132553556" type="building" color="255,230,230" fill="1" layer="-1.00" shape="1575.528832,1300.727406 1586.521956,1318.758055 1592.595138,1315.020100 1581.667797,1297.246204 1575.528832,1300.727406"/>
    <poly id="133295107" type="building" color="255,230,230" fill="1" layer="-1.00" shape="1651.228720,1444.234614 1673.362009,1430.789671 1677.522086,1437.619968 1655.412631,1451.043090 1651.228720,1444.234614"/>
    <poly id="133295146" type="building" color="255,230,230" fill="1" layer="-1.00" shape="1658.918986,1456.850530 1681.066102,1443.505878 1677.522086,1437.619968 1655.412631,1451.043090 1658.918986,1456.850530"/>
    <poly id="133295160" type="building" color="255,230,230" fill="1" layer="-1.00" shape="1662.881126,1463.388378 1685.028227,1450.043741 1681.066102,1443.505878 1658.918986,1456.850530 1662.881126,1463.388378"/>
    <poly id="133295167" type="building" color="255,230,230" fill="1" layer="-1.00" shape="1665.409769,1467.055937 1687.709162,1453.491736 1685.028227,1450.043741 1662.881126,1463.388378 1665.409769,1467.055937"/>
    <poly id="133295487" type="building" color="255,230,230" fill="1" layer="-1.00" shape="1689.836467,1485.179629 1702.268297,1477.453371 1698.486713,1471.752174 1675.465349,1485.948145 1678.017361,1490.060649 1686.593981,1484.777832 1688.884323,1483.362472 1689.836467,1485.179629"/>
    <poly id="133295488" type="building" color="255,230,230" fill="1" layer="-1.00" shape="1675.465349,1485.948145 1698.486713,1471.752174 1694.408068,1465.178903 1680.989491,1473.487855 1682.645549,1476.139820 1680.434278,1477.501014 1679.598832,1476.152674 1672.609493,1480.463355 1675.465349,1485.948145"/>
    <poly id="133295516" type="building" color="255,230,230" fill="1" layer="-1.00" shape="1683.890432,1497.643571 1706.219079,1483.746559 1702.268297,1477.453371 1689.836467,1485.179629 1691.872568,1488.427309 1681.983747,1494.587103 1683.890432,1497.643571"/>
    <poly id="133295534" type="building" color="255,230,230" fill="1" layer="-1.00" shape="1696.310225,1498.996551 1710.551319,1490.113170 1706.219079,1483.746559 1683.890432,1497.643571 1686.901315,1502.753259 1695.518935,1497.360047 1696.310225,1498.996551"/>
    <poly id="133295568" type="building" color="255,230,230" fill="1" layer="-1.00" shape="1694.531599,1514.334640 1717.243053,1500.433318 1714.433765,1496.294024 1691.929417,1510.410165 1694.531599,1514.334640"/>
    <poly id="133295569" type="building" color="255,230,230" fill="1" layer="-1.00" shape="1691.929417,1510.410165 1714.433765,1496.294024 1710.551319,1490.113170 1696.310225,1498.996551 1697.791766,1501.356495 1689.450803,1506.565668 1691.929417,1510.410165"/>
    <poly id="133295760" type="building" color="255,230,230" fill="1" layer="-1.00" shape="1724.108180,1510.223107 1726.258219,1515.862146 1750.112327,1552.657214 1735.150727,1561.650012 1734.161874,1560.143368 1727.676136,1563.807211 1722.715549,1555.429109 1729.583827,1550.894081 1728.174903,1548.846581 1727.010684,1549.748398 1714.244793,1529.530183 1705.786870,1535.170680 1703.056706,1530.532696 1699.863930,1525.108617 1724.108180,1510.223107"/>
    <poly id="133296985" type="building" color="255,230,230" fill="1" layer="-1.00" shape="2168.168745,1345.965844 2152.894021,1321.468066 2183.753834,1302.345270 2199.036497,1326.832153 2168.168745,1345.965844"/>
    <poly id="133296985#1" type="shop" color="237,199,255" fill="1" layer="-1.00" shape="2168.168745,1345.965844 2152.894021,1321.468066 2183.753834,1302.345270 2199.036497,1326.832153 2168.168745,1345.965844"/>
    <poly id="133299398" type="building" color="255,230,230" fill="1" layer="-1.00" shape="1729.636569,1479.848497 1736.180983,1475.963427 1751.029921,1467.168671 1747.320272,1460.935282 1725.918902,1473.626093 1729.636569,1479.848497"/>
    <poly id="133299399" type="building" color="255,230,230" fill="1" layer="-1.00" shape="1729.636569,1479.848497 1751.029921,1467.168671 1753.252779,1470.897540 1745.816496,1475.300259 1747.128189,1477.546081 1733.209587,1485.857197 1729.636569,1479.848497"/>
    <poly id="133299510" type="building" color="255,230,230" fill="1" layer="-1.00" shape="1733.209587,1485.857197 1747.128189,1477.546081 1748.372937,1479.601796 1755.786183,1475.176446 1758.328571,1479.388833 1739.601806,1490.582150 1736.988533,1492.147368 1733.209587,1485.857197"/>
    <poly id="133299511" type="building" color="255,230,230" fill="1" layer="-1.00" shape="1758.328571,1479.388833 1760.812215,1483.389032 1755.788494,1486.534151 1755.081695,1485.421451 1751.874880,1487.420697 1754.301991,1490.641972 1743.803563,1497.257647 1739.601806,1490.582150 1758.328571,1479.388833"/>
    <poly id="133299513" type="building" color="255,230,230" fill="1" layer="-1.00" shape="1754.301991,1490.641972 1755.464567,1492.485086 1756.072793,1493.429345 1764.027456,1488.424579 1766.018628,1491.560359 1745.156097,1504.705156 1741.394309,1498.770904 1743.803563,1497.257647 1754.301991,1490.641972"/>
    <poly id="133299514" type="building" color="255,230,230" fill="1" layer="-1.00" shape="1766.018628,1491.560359 1768.759323,1496.042973 1763.287349,1499.357971 1762.619205,1498.268180 1759.831773,1499.963668 1760.279544,1500.705054 1761.608219,1502.873387 1748.839786,1510.638030 1745.156097,1504.705156 1766.018628,1491.560359"/>
    <poly id="133300146" type="building" color="255,230,230" fill="1" layer="-1.00" shape="1762.675510,1571.960643 1770.011527,1583.825865 1758.379122,1590.966007 1751.043092,1579.100799 1762.675510,1571.960643"/>
    <poly id="133300148" type="building" color="255,230,230" fill="1" layer="-1.00" shape="1758.379122,1590.966007 1747.552091,1597.620314 1746.612420,1598.192701 1739.276377,1586.327507 1751.043092,1579.100799 1758.379122,1590.966007"/>
    <poly id="133300153" type="building" color="255,230,230" fill="1" layer="-1.00" shape="1762.675510,1571.960643 1759.349269,1566.578624 1757.730361,1567.572415 1746.011061,1574.766610 1746.466832,1575.497023 1736.405898,1581.675913 1739.276377,1586.327507 1751.043092,1579.100799 1762.675510,1571.960643"/>
    <poly id="133301139" type="building" color="255,230,230" fill="1" layer="-1.00" shape="1794.217052,1560.527266 1805.127541,1554.018984 1801.697894,1548.301717 1790.779590,1554.809867 1794.217052,1560.527266"/>
    <poly id="133301140" type="building" color="255,230,230" fill="1" layer="-1.00" shape="1799.029299,1590.095637 1802.398613,1595.689591 1824.258755,1582.662655 1820.889649,1577.057579 1799.029299,1590.095637"/>
    <poly id="133301141" type="building" color="255,230,230" fill="1" layer="-1.00" shape="1791.950056,1578.290486 1795.432981,1584.086482 1814.782778,1572.548735 1811.307673,1566.752866 1803.049893,1571.674417 1791.950056,1578.290486"/>
    <poly id="133301142" type="building" color="255,230,230" fill="1" layer="-1.00" shape="1795.432981,1584.086482 1799.029299,1590.095637 1820.889649,1577.057579 1817.293146,1571.059521 1814.782778,1572.548735 1795.432981,1584.086482"/>
    <poly id="133301143" type="building" color="255,230,230" fill="1" layer="-1.00" shape="1802.398613,1595.689591 1801.695955,1596.110577 1808.843670,1608.016971 1831.406444,1594.569074 1824.258755,1582.662655 1802.398613,1595.689591"/>
    <poly id="133301144" type="building" color="255,230,230" fill="1" layer="-1.00" shape="1788.330493,1572.269811 1791.950056,1578.290486 1803.049893,1571.674417 1799.430336,1565.653736 1797.093535,1567.046008 1788.330493,1572.269811"/>
    <poly id="133301145" type="building" color="255,230,230" fill="1" layer="-1.00" shape="1780.879668,1560.713707 1784.317135,1566.431100 1793.451329,1560.980478 1794.217052,1560.527266 1790.779590,1554.809867 1780.879668,1560.713707"/>
    <poly id="133301146" type="building" color="255,230,230" fill="1" layer="-1.00" shape="1784.317135,1566.431100 1783.480347,1566.927509 1787.114750,1572.992895 1788.330493,1572.269811 1797.093535,1567.046008 1793.451329,1560.980478 1784.317135,1566.431100"/>
    <poly id="133301147" type="building" color="255,230,230" fill="1" layer="-1.00" shape="1799.430336,1565.653736 1810.064560,1559.307274 1806.429974,1553.252984 1805.127541,1554.018984 1794.217052,1560.527266 1793.451329,1560.980478 1797.093535,1567.046008 1799.430336,1565.653736"/>
    <poly id="133301774" type="building" color="255,230,230" fill="1" layer="-1.00" shape="1627.644192,1317.350301 1624.069990,1311.397215 1647.138667,1297.646403 1650.712660,1303.610613 1627.644192,1317.350301"/>
    <poly id="133301775" type="building" color="255,230,230" fill="1" layer="-1.00" shape="1633.387870,1322.541551 1631.506704,1323.786347 1627.644192,1317.350301 1650.712660,1303.610613 1654.575158,1310.046673 1633.387870,1322.541551"/>
    <poly id="133301776" type="building" color="255,230,230" fill="1" layer="-1.00" shape="1635.128089,1325.739532 1637.599898,1325.994331 1656.989402,1314.445673 1654.575158,1310.046673 1633.387870,1322.541551 1635.128089,1325.739532"/>
    <poly id="133301973" type="building" color="255,230,230" fill="1" layer="-1.00" shape="1612.709352,1326.577251 1616.277904,1332.407986 1599.466081,1342.646464 1595.897324,1336.826848 1612.709352,1326.577251"/>
    <poly id="133301974" type="building" color="255,230,230" fill="1" layer="-1.00" shape="1616.277904,1332.407986 1619.436948,1337.097951 1613.929567,1340.645832 1591.755721,1353.723538 1588.355525,1349.418291 1599.466081,1342.646464 1616.277904,1332.407986"/>
    <poly id="133301978" type="building" color="255,230,230" fill="1" layer="-1.00" shape="1609.254402,1320.948560 1612.709352,1326.577251 1595.897324,1336.826848 1584.131536,1343.987191 1580.676571,1338.358516 1609.254402,1320.948560"/>
    <poly id="133301980" type="building" color="255,230,230" fill="1" layer="-1.00" shape="1599.466081,1342.646464 1588.355525,1349.418291 1587.702560,1348.351016 1585.112502,1349.927820 1582.196702,1345.175488 1584.131536,1343.987191 1595.897324,1336.826848 1599.466081,1342.646464"/>
    <poly id="133302333" type="landuse" color="194,194,130" fill="1" layer="-3.00" shape="1649.547918,1336.829518 1655.325148,1346.311063 1687.979413,1326.773052 1689.606922,1326.179468 1690.138593,1317.309440 1688.089209,1313.483644 1649.547918,1336.829518"/>
    <poly id="133305677" type="landuse" color="194,194,130" fill="1" layer="-3.00" shape="1411.506682,1442.983606 1422.017447,1460.027505 1460.975303,1436.443139 1461.253349,1435.736799 1455.756633,1426.727136 1451.049527,1419.009412 1411.506682,1442.983606"/>
    <poly id="133305765" type="building" color="255,230,230" fill="1" layer="-1.00" shape="1462.057623,1420.248128 1458.268984,1414.046869 1468.067682,1408.118513 1471.848506,1414.319641 1462.057623,1420.248128"/>
    <poly id="133305766" type="building" color="255,230,230" fill="1" layer="-1.00" shape="1469.840819,1429.831545 1479.636761,1424.058743 1475.621710,1420.509524 1465.823023,1426.437868 1469.840819,1429.831545"/>
    <poly id="133305767" type="building" color="255,230,230" fill="1" layer="-1.00" shape="1465.823023,1426.437868 1462.057623,1420.248128 1471.848506,1414.319641 1475.621710,1420.509524 1465.823023,1426.437868"/>
    <poly id="133305910" type="building" color="255,230,230" fill="1" layer="-1.00" shape="1455.756633,1426.727136 1461.253349,1435.736799 1467.032116,1432.293593 1458.427285,1417.917037 1455.419683,1419.697682 1458.614291,1425.032754 1455.756633,1426.727136"/>
    <poly id="133306003" type="building" color="255,230,230" fill="1" layer="-1.00" shape="1449.093344,1477.241196 1443.195338,1480.804560 1436.089724,1469.121620 1441.995545,1465.558387 1449.093344,1477.241196"/>
    <poly id="133306004" type="building" color="255,230,230" fill="1" layer="-1.00" shape="1398.175288,1507.982877 1390.169426,1512.809384 1383.071564,1501.126642 1391.069820,1496.288879 1398.175288,1507.982877"/>
    <poly id="133306005" type="building" color="255,230,230" fill="1" layer="-1.00" shape="1437.463091,1484.270833 1429.591294,1489.021862 1422.485861,1477.327828 1430.357667,1472.576790 1437.463091,1484.270833"/>
    <poly id="133306006" type="building" color="255,230,230" fill="1" layer="-1.00" shape="1470.663781,1464.230161 1464.750132,1467.793229 1457.644541,1456.110264 1463.566202,1452.536217 1470.663781,1464.230161"/>
    <poly id="133306007" type="building" color="255,230,230" fill="1" layer="-1.00" shape="1390.169426,1512.809384 1383.710979,1516.707434 1376.613110,1505.024699 1383.071564,1501.126642 1390.169426,1512.809384"/>
    <poly id="133306008" type="building" color="255,230,230" fill="1" layer="-1.00" shape="1406.110293,1503.188471 1398.175288,1507.982877 1391.069820,1496.288879 1399.004638,1491.505573 1406.110293,1503.188471"/>
    <poly id="133306009" type="building" color="255,230,230" fill="1" layer="-1.00" shape="1421.711699,1493.772764 1413.879362,1498.502282 1406.781721,1486.808403 1414.606061,1482.089848 1421.711699,1493.772764"/>
    <poly id="133306010" type="building" color="255,230,230" fill="1" layer="-1.00" shape="1429.591294,1489.021862 1421.711699,1493.772764 1414.606061,1482.089848 1422.485861,1477.327828 1429.591294,1489.021862"/>
    <poly id="133306011" type="building" color="255,230,230" fill="1" layer="-1.00" shape="1443.195338,1480.804560 1437.463091,1484.270833 1430.357667,1472.576790 1436.089724,1469.121620 1443.195338,1480.804560"/>
    <poly id="133306012" type="building" color="255,230,230" fill="1" layer="-1.00" shape="1464.750132,1467.793229 1456.988795,1472.479494 1449.883196,1460.796538 1457.644541,1456.110264 1464.750132,1467.793229"/>
    <poly id="133306013" type="building" color="255,230,230" fill="1" layer="-1.00" shape="1413.879362,1498.502282 1406.110293,1503.188471 1399.004638,1491.505573 1406.781721,1486.808403 1413.879362,1498.502282"/>
    <poly id="133306014" type="building" color="255,230,230" fill="1" layer="-1.00" shape="1476.427693,1460.742249 1470.663781,1464.230161 1463.566202,1452.536217 1469.329924,1449.059409 1476.427693,1460.742249"/>
    <poly id="133306015" type="building" color="255,230,230" fill="1" layer="-1.00" shape="1456.988795,1472.479494 1449.093344,1477.241196 1441.995545,1465.558387 1449.883196,1460.796538 1456.988795,1472.479494"/>