<?xml version="1.0" encoding="UTF-8"?>

<!-- generated on 2023-02-22 02:07:54 by Eclipse SUMO duarouter Version 1.11.0
<configuration xmlns:xsi="http://www.w3.org/2001/XMLSchema-instance" xsi:noNamespaceSchemaLocation="http://sumo.dlr.de/xsd/duarouterConfiguration.xsd">

    <input>
        <net-file value="mtl.net.xml"/>
        <route-files value="mtl.trips.xml"/>
    </input>

    <output>
        <output-file value="mtl.rou.xml"/>
        <alternatives-output value="mtl.rou.alt.xml"/>
    </output>

    <report>
        <ignore-errors value="true"/>
    </report>

</configuration>
-->

<routes xmlns:xsi="http://www.w3.org/2001/XMLSchema-instance" xsi:noNamespaceSchemaLocation="http://sumo.dlr.de/xsd/routes_file.xsd">
    <vehicle id="0" depart="0.00">
        <route edges="465184061#3 465184061#4 -465184061#4 -465184061#3 308901623#3 972596444#0 972596444#1 972596443#0 452269046#2 972596442#1 972574088#0 972574088#1 337509254#2 971670912#0 463886945#2 971664824 1057905568 337509253#1 337509253#2 337509253#4 970061627#0 -970061627#0 -337509253#4 -337509253#2 -337509253#1"/>
    </vehicle>
    <vehicle id="1" depart="1.00">
        <route edges="173966368#3 173966368#4 173966368#5 -465195709#0 -4687363#1 -4687363#0 -465183712 -337509255#4 -337509255#3 -337509255#1 -463886948#1 -452096883 -725190286#0 -971673239#2 143310627#4 143310627#5 143310627#6 143310627#7 143310627#8 143310627#9 143310627#10 143310627#11 143310627#12"/>
    </vehicle>
    <vehicle id="2" depart="2.00">
        <route edges="4886259#3 4886259#4 4886259#5 17586859#0 17586859#1 17586859#2 465153002#1 454888145 454888144#0 454888144#1 -970061627#0 -337509253#4 -337509253#2 -337509253#1 -1057905568 -971664824 -463886945#2 -971670912#0 -337509254#2 -452049816#0 -393792173#2 -4320351#2 452098812#2 452098812#5 132182122#2 463886947#0 463886947#1 475308553#0 475308553#1 475308552#0 475308550#1 475308550#2"/>
    </vehicle>
    <vehicle id="3" depart="3.00">
        <route edges="971664823#2 971673239#1 971673239#2 725190286#0 452096883 463886948#1 337509255#1 337509255#3 337509255#4 465183712 393659689#5 393659689#6 393659689#7 393659689#8 173960042#1 173960042#2 4889437#0 4889437#1 465152995 127653572#0 127653572#1 -127653572#1 -127653572#0 -465152995"/>
    </vehicle>
    <vehicle id="4" depart="4.00">
        <route edges="27320317#4 27320317#5 27320317#6 27320317#7 27320317#8 27320317#9 27320317#10 27320317#11 27320317#12 27320317#13 972589065#1 972589065#2 452269046#2 972596442#1 972574088#0 972574088#1 337509254#2 971670912#0 -971670912#0 -337509254#2"/>
    </vehicle>
    <vehicle id="5" depart="5.00">
        <route edges="143310627#14 454888145 454888144#0 454888144#1 -970061627#0 -337509253#4 -337509253#2 -337509253#1 -1057905568 -971664824 -463886945#2 -971670912#0 -337509254#2 -972574088#1 -972574088#0 -972596442#1 -972596442#0 -972596443#0 -972596444#1 -972596444#0 -308901623#3 465184061#3 465184061#4 972596449 465184058#0 465184058#1 38778037#3"/>
    </vehicle>
    <vehicle id="6" depart="6.00">
        <route edges="-337509253#1 -1057905568 -971664824 -463886945#2 -971670912#0 -337509254#2 -452049816#0 -393792173#2 -4320351#2 452098812#2 452098812#5 132182122#2 463886947#0 463886947#1 463886951#2 974153405 974153385#0 974153385#1 -475308562#2 -475308562#1 -453940107#0 -475009070#1 132182118#1 132182118#2"/>
    </vehicle>
    <vehicle id="7" depart="7.00">
        <route edges="465195716#3 173966357#0 173966357#1 173966357#2 465152994#1 19915704#0 19915704#1 465153002#0 465153002#1 454888145 454888144#0 454888144#1 -970061627#0 -337509253#4 -337509253#2 -337509253#1 -1057905568 -971664824 -463886945#2 -971670912#0 -337509254#2 -452049816#0 -393792173#2 -4320351#2 452098812#2 452098812#5 132182122#2 463886947#0 463886947#1 -463886947#1 -463886947#0 4320452#0 4320452#1"/>
    </vehicle>
    <vehicle id="8" depart="8.00">
        <route edges="143310627#2 143310627#3 143310627#4 143310627#5 143310627#6 143310627#7 143310627#8 143310627#9 143310627#10 143310627#11 143310627#12 143310627#13 143310627#14 454888145 454888148"/>
    </vehicle>
    <vehicle id="9" depart="9.00">
        <route edges="62154689#9 465152999#0 173960042#1 173960042#2 4889437#0 4889437#1 465152995 127653572#0 127653572#1 -127653572#1 -127653572#0"/>
    </vehicle>
    <vehicle id="10" depart="10.00">
        <route edges="62154689#7 62154689#8 62154689#9 19915704#0 19915704#1 465153002#0 465153002#1 454888145 182703354#1 971660047#1 971660047#2 971664823#1 971664823#2 971673240#1 971673240#3 971673240#4 475308560#1"/>
    </vehicle>
    <vehicle id="11" depart="11.00">
        <route edges="19915904#0 19915904#1 19915904#2 19915904#3 19915904#4 19915904#5 -337509255#1 -463886948#1 -452096883 -725190286#0 -971673239#2 -971673239#1 -452096884#4 -452096884#3 -972574088#1 -972574088#0 -972596442#1 -972596442#0"/>
    </vehicle>
    <vehicle id="13" depart="13.00">
        <route edges="-465184058#1 -465184058#0 -972596449 -465184061#4 -465184061#3"/>
    </vehicle>
    <vehicle id="14" depart="14.00">
        <route edges="74450601#0 74450601#1 465195716#2 465195716#3 173966368#0 173966368#1 173966368#2 173966368#3 173966368#4 173966368#5 -465195709#0 -4687363#1 -4687363#0 -465183712 -337509255#4 -337509255#3 -337509255#1 -463886948#1 463886948#1"/>
    </vehicle>
    <vehicle id="15" depart="15.00">
        <route edges="62154689#7 479769684#3 4889445 34144498#0 34144498#1 173966368#3 173966368#4 173966368#5 -465195709#0 479722683#4 479722683#5 479722683#6"/>
    </vehicle>
    <vehicle id="16" depart="16.00">
        <route edges="4320452#0 4320452#1 8140255#4 452101821#2 974153387#9"/>
    </vehicle>
    <vehicle id="17" depart="17.00">
        <route edges="19937704#1 972259929#1 971670911#1 971670911#2 972301456#1 972301456#2 -971670912#0 -337509254#2 452096884#3"/>
    </vehicle>
    <vehicle id="18" depart="18.00">
        <route edges="725439470#0 725439470#1 725439470#3 725439470#4 725439470#5 725439470#6 475308555#1 475308554#0 -463886947#1 -463886947#0 4320452#0 4320452#1 -452098812#5 -452098812#2 4320351#2 393792173#2 452049816#0 337509254#2 971670912#0 463886945#2 971664824 1057905568 337509253#1 337509253#2 337509253#4 970061627#0 454888149#2 454888148 465152998#0 465152998#3"/>
    </vehicle>
    <vehicle id="19" depart="19.00">
        <route edges="961277248#1 961277247 961277250#0 165321632#1 165321633#7 165321633#8 4886259#5 17586859#0 17586859#1 17586859#2 465153002#1 454888145 454888144#0 454888144#1 -970061627#0 -337509253#4 -337509253#2 -337509253#1 -1057905568 -971664824 -463886945#2 -971670912#0 -337509254#2 -972574088#1 -972574088#0 -972596442#1 -972596442#0 -972596443#0 -972596444#1 -972596444#0 -308901623#3 -972596445#0 -453998195#3 -453998195#2 453998195#2"/>
    </vehicle>
    <vehicle id="20" depart="20.00">
        <route edges="475308562#2 -974153385#1 -974153385#0 -974153405 -463886951#2 -463886947#1 -463886947#0 4320452#0 4320452#1 -452098812#5 -452098812#2 4320351#2 393792173#2 452049816#0 452096884#3 452096884#4 971673239#1 971673239#2 725190286#0 452096883 463886948#1 -463886948#1 -452096883"/>
    </vehicle>
    <vehicle id="21" depart="21.00">
        <route edges="143310627#6 143310627#7 143310627#8 143310627#9 143310627#10 143310627#11 143310627#12 971660046#2 479769684#0 479769684#1 479769684#2 479769684#3 4889445 34144498#0 34144498#1 173966368#3 173966368#4"/>
    </vehicle>
    <vehicle id="22" depart="22.00">
        <route edges="-463886947#1 -463886947#0 4320452#0 4320452#1 -452098812#5 -452098812#2 4320351#2 393792173#2 452049816#0 452096884#3 452096884#4 971673239#1 143310627#4"/>
    </vehicle>
    <vehicle id="23" depart="23.00">
        <route edges="-465184061#4 -465184061#3 308901623#3 972596444#0 972596444#1 972596443#0 452269046#2 972596442#1 972574088#0 972574088#1 337509254#2 971670912#0 463886945#2 971664824 1057905568 337509253#1 337509253#2 337509253#4 970061627#0 454888149#2 454888148 330153475#0 330153475#1 330153475#2 465152992 465152999#0 465195716#1 465195716#2 465195716#3 173966357#0 173966357#1 173966357#2"/>
    </vehicle>
    <vehicle id="24" depart="24.00">
        <route edges="465184058#2 465184058#3 393785998 -393785998 -465184058#3 -465184058#2 -465184058#1 -465184058#0 -972596449 -465184061#4 -465184061#3 -475308562#18 -475308562#17 -475308562#14 -475308562#13 -475308562#8 -475308562#7 -974153385#1 -974153385#0 -974153405 -463886951#2 -463886947#1 -463886947#0 4320452#0 4320452#1 8140255#4 452101821#2 463886942#1 19937696#3"/>
    </vehicle>
    <vehicle id="25" depart="25.00">
        <route edges="19937698#2 19937698#3 725439470#4 725439470#5 725439470#6 475308555#1 475308554#0 -463886947#1 -463886947#0 4320452#0 4320452#1 -452098812#5 -452098812#2 4320351#2 393792173#2 452049816#0 337509254#2 971670912#0 463886945#2 971664824 1057905568 337509253#1 337509253#2 337509253#4 970061627#0 454888149#2 454888148 330153475#0 330153475#1 330153475#2 465152992 465152999#0 465195716#1 465195716#2 465195716#3 19915706#0 19915706#1 13775548#0 13775548#1"/>
    </vehicle>
    <vehicle id="26" depart="26.00">
        <route edges="173966357#2 465152994#1 19915704#0 19915704#1 465153002#0 465153002#1 454888145 454888144#0 454888144#1 -970061627#0 -337509253#4 -337509253#2 -337509253#1 -1057905568 -971664824 -463886945#2 -971670912#0 -337509254#2 -972574088#1 -972574088#0 -972596442#1 -972596442#0 -972596443#0 -972596444#1 -972596444#0 -308901623#3 308901623#3 972596444#0 972596444#1"/>
    </vehicle>
    <vehicle id="27" depart="27.00">
        <route edges="465195716#2 465195716#3 173966357#0 173966357#1 173966357#2 173960042#1 173960042#2 628108454#0 465152991#1 465152991#2"/>
    </vehicle>
    <vehicle id="28" depart="28.00">
        <route edges="-974153385#0 -974153405 -463886951#2 -463886947#1 -463886947#0 4320452#0 4320452#1 -452098812#5 -452098812#2 4320351#2 393792173#2 452049816#0 452096884#3 452096884#4 971673239#1 971673239#2 725190286#0 452096883 463886948#1 337509255#1 337509255#3 337509255#4 465183712 4687363#0 4687363#1 479722683#4 479722683#5 479722683#6"/>
    </vehicle>
    <vehicle id="29" depart="29.00">
        <route edges="-972596449 -465184061#4 -465184061#3 -475308562#18 -475308562#17 -475308562#14 -475308562#13 -475308562#8 -475308562#7 -475308562#2 -475308562#1 -453940107#0 -475009070#1 -475009069#0 19937698#1 19937698#2 19937698#3"/>
    </vehicle>
    <vehicle id="30" depart="30.00">
        <route edges="980912054#0 26740985 980912058#2 -465184058#3 -465184058#2 -465184058#1 -465184058#0 -972596449 972596449 465184058#0"/>
    </vehicle>
    <vehicle id="31" depart="31.00">
        <route edges="453713159#1 173966357#0 173966357#1 173966357#2 465152994#1 19915704#0 19915704#1 465153002#0 465153002#1 454888145 454888144#0 454888144#1 -970061627#0 -337509253#4 -337509253#2 -337509253#1 -1057905568 -971664824 -463886945#2 -971670912#0 -337509254#2 -452049816#0 -393792173#2 -4320351#2 452098812#2 452098812#5 8140255#4 452101821#2 463886942#1 19937696#3 19937696#4 19937696#5 725439470#5 725439470#6 475308555#1 475308554#0"/>
    </vehicle>
    <vehicle id="32" depart="32.00">
        <route edges="74338324#2 74338324#3 19915706#0 19915706#1 143502939#0 143502939#1 143502939#2 -127653572#2 4889446#1 4889446#2 4889446#3 4889446#4"/>
    </vehicle>
    <vehicle id="33" depart="33.00">
        <route edges="143310627#6 143310627#7 143310627#8 143310627#9 143310627#10 143310627#11 143310627#12 971660046#2 17586859#8 17586859#9 17586859#10 452096883 463886948#1 337509255#1 -337509255#1"/>
    </vehicle>
    <vehicle id="35" depart="35.00">
        <route edges="143310627#1 27320317#12 27320317#13 475308560#1 475308560#2 475308559#1 475308559#2 972602500#1 972602500#2"/>
    </vehicle>
    <vehicle id="36" depart="36.00">
        <route edges="971660046#1 143310627#13 143310627#14 465152998#0 976809440#2 17588328#4"/>
    </vehicle>
    <vehicle id="37" depart="37.00">
        <route edges="475009069#0 475009070#1 453940107#0 475308562#1 475308562#2 -974153385#1 -974153385#0 -974153405 -463886951#2 -463886947#1 -463886947#0 4320452#0 4320452#1 -452098812#5 -452098812#2 4320351#2 393792173#2 452049816#0 337509254#2 971670912#0 463886945#2 971664824 1057905568 337509253#1 337509253#2 337509253#4 970061627#0 454888149#2 454888148 465152998#0 465152998#3 465152998#4 -19938630#3 -19938630#0 19938630#0"/>
    </vehicle>
    <vehicle id="38" depart="38.00">
        <route edges="972259966#0 972259966#1 19937704#1 972259929#1 971670911#1 971670911#2 972301456#1 972301456#2 -971670912#0 -337509254#2 -972574088#1 -972574088#0 -972596442#1 -972596442#0 -972596443#0 -972596444#1 -972596444#0 -308901623#3 308901623#3"/>
    </vehicle>
    <vehicle id="39" depart="39.00">
        <route edges="173966357#1 173966357#2 465195716#1 465195716#2 465195716#3 19915706#0 19915706#1 143502939#0 143502939#1"/>
    </vehicle>
    <vehicle id="40" depart="40.00">
        <route edges="453713178#0 453713170 453713160#0 453713159#0 453713159#1 173966357#0 173966357#1 173966357#2 173960042#1 173960042#2 4886259#1 4886259#2 961277249#0 165321632#1 165321633#7"/>
    </vehicle>
    <vehicle id="41" depart="41.00">
        <route edges="454888149#2 182703354#1 971660047#1 971660047#2 971664823#1 971664823#2 971673240#1"/>
    </vehicle>
    <vehicle id="42" depart="42.00">
        <route edges="26740984#1 393659689#1 27320317#1 27320317#2 27320317#3 27320317#4 27320317#5 27320317#6 27320317#7 980912058#1 980912058#2 -465184058#3 -465184058#2 -465184058#1 -465184058#0 143310627#0 143310627#1"/>
    </vehicle>
    <vehicle id="43" depart="43.00">
        <route edges="980912058#1 980912058#2 -465184058#3 -465184058#2 38778037#3 38778037#4 38778037#5 38778037#6"/>
    </vehicle>
    <vehicle id="44" depart="44.00">
        <route edges="-465184058#0 143310627#0 143310627#1 143310627#2 143310627#3 -971673239#1 -452096884#4 -452096884#3"/>
    </vehicle>
    <vehicle id="45" depart="45.00">
        <route edges="-475009070#1 475009070#1 453940107#0 475308562#1 475308562#2 -974153385#1 -974153385#0 -974153405 -463886951#2 -463886947#1 -463886947#0 4320452#0 4320452#1 -452098812#5 -452098812#2 4320351#2 393792173#2 452049816#0 452096884#3 452096884#4 971673239#1 971673239#2 725190286#0 452096883 463886948#1 465153000#0 465153000#1 465153000#2"/>
    </vehicle>
    <vehicle id="46" depart="46.00">
        <route edges="537816940#3 465152991#1 465152991#2 708717899#1 708717899#2 465152995 961285050 74338324#2 74338324#3 173966368#0 173966368#1 173966368#2 173966368#3 173966368#4 173966368#5 173966368#9 19915700#1 19915700#2 27320317#1 27320317#2 27320317#3 27320317#4 27320317#5 27320317#6 27320317#7 27320317#8 27320317#9 27320317#10 27320317#11"/>
    </vehicle>
    <vehicle id="47" depart="47.00">
        <route edges="-453940107#0 -475009070#1 -475009069#0 19937698#1 19937698#2 19937698#3 19937698#4"/>
    </vehicle>
    <vehicle id="48" depart="48.00">
        <route edges="980912058#0 27320317#8 27320317#9 27320317#10 27320317#11 27320317#12 27320317#13 972589065#1 972589065#2 452269046#2 972596442#1 972574088#0 972574088#1 -452049816#0 -393792173#2 393789816#1"/>
    </vehicle>
    <vehicle id="49" depart="49.00">
        <route edges="974153387#4 974153387#5 974153387#6 -452101821#2 -8140255#4 -452098812#5 -452098812#2 4320351#2 393792173#2 452049816#0 337509254#2 971670912#0 463886945#2 971664824 1057905568 337509253#1 337509253#2 337509253#4 970061627#0 454888149#2 454888148 330153475#0 330153475#1 330153475#2 465152992 465152999#0 173960042#1 173960042#2 4886259#1 4886259#2 961277249#0 961277251#1"/>
    </vehicle>
    <vehicle id="50" depart="50.00">
        <route edges="-127653572#3 -127653572#2 -127653572#1 -127653572#0 961285050 74338324#2 74338324#3 173966357#0 173966357#1 173966357#2 465152994#1 19915704#0 19915704#1 465153002#0 465153002#1 454888145 454888144#0 454888144#1 -970061627#0 -337509253#4 -337509253#2 -337509253#1 -1057905568 -971664824 -463886945#2 -971670912#0 -337509254#2 -452049816#0 -393792173#2 393789816#1 393789816#2 972301455#1 972301455#2 476497924#1 476497924#2 476497924#3"/>
    </vehicle>
    <vehicle id="52" depart="52.00">
        <route edges="173966357#2 465152994#1 19915704#0 19915704#1 465153002#0 465153002#1 454888145 454888144#0 454888144#1 -970061627#0 -337509253#4 -337509253#2 -337509253#1 -1057905568 -971664824 -463886945#2 -971670912#0 -337509254#2 -972574088#1 -972574088#0 -972596442#1 -972596442#0 -972596443#0 -972596444#1 -972596444#0 -308901623#3 465184061#3 465184061#4 972596449 465184058#0"/>
    </vehicle>
    <vehicle id="53" depart="53.00">
        <route edges="-475308541#0 -475308542 475308542 475308541#0 475308562#2 -974153385#1 -974153385#0 -974153405 -463886951#2 -463886947#1 -463886947#0 4320452#0 4320452#1 -452098812#5 -452098812#2 4320351#2 393792173#2 452049816#0 452096884#3 452096884#4 971673239#1 971673239#2 725190286#0 452096883 463886948#1 337509255#1 980912051#0 27320317#5"/>
    </vehicle>
    <vehicle id="55" depart="55.00">
        <route edges="970061627#0 454888149#2 454888148 465152998#0 465152998#3 465152998#4 -19938630#3 165321633#3 165321633#4 165321633#5 165321633#6 165321633#7"/>
    </vehicle>
    <vehicle id="56" depart="56.00">
        <route edges="38778037#6 -971673239#2 -971673239#1 -452096884#4 -452096884#3 337509254#2 971670912#0 463886945#2 971664824 1057905568"/>
    </vehicle>
    <vehicle id="57" depart="57.00">
        <route edges="972259929#1 971670911#1 971670911#2 972301456#1 972301456#2 463886945#2 971664824 1057905568 337509253#1 337509253#2 337509253#4 970061627#0 -970061627#0 -337509253#4 -337509253#2 -337509253#1 4889447#0 4889447#1 4889447#2 4889447#3 971660046#1 971660046#2"/>
    </vehicle>
    <vehicle id="58" depart="58.00">
        <route edges="17586859#9 17586859#10 452096883 463886948#1 337509255#1 337509255#3 337509255#4 465183712"/>
    </vehicle>
    <vehicle id="59" depart="59.00">
        <route edges="465152998#0 976809440#2 17588328#4 17588328#5 454888144#0 454888144#1 -970061627#0 -337509253#4 -337509253#2 -337509253#1 -1057905568 -971664824 -463886945#2 -971670912#0 -337509254#2 -972574088#1"/>
    </vehicle>
    <vehicle id="61" depart="61.00">
        <route edges="4889446#9 453713189#2 173966368#3 173966368#4 173966368#5 -465195709#0 -4687363#1 -4687363#0 -465183712 -337509255#4 -337509255#3 -337509255#1 -463886948#1 -452096883 -725190286#0 -971673239#2 -971673239#1 -452096884#4 -452096884#3 -452049816#0 -393792173#2 393789816#1 393789816#2"/>
    </vehicle>
    <vehicle id="62" depart="62.00">
        <route edges="-1057905568 -971664824 -463886945#2 -971670912#0 -337509254#2 -972574088#1 -972574088#0 -972596442#1 -972596442#0 -972596443#0 -972596444#1 -972596444#0 -308901623#3 465184061#3 465184061#4 972596449 465184058#0 465184058#1 465184058#2 465184058#3 19908073#0 19908073#1 19908073#2"/>
    </vehicle>
    <vehicle id="63" depart="63.00">
        <route edges="-27335098#0 19915904#2 19915904#3 19915904#4 19915904#5 -337509255#1 -463886948#1 -452096883 -725190286#0 -971673239#2 -971673239#1 971673240#1 971673240#3 971673240#4 972589065#1 972589065#2"/>
    </vehicle>
    <vehicle id="64" depart="64.00">
        <route edges="971660046#2 17586859#8 17586859#9 17586859#10 -725190286#0 -971673239#2 -971673239#1 -452096884#4 -452096884#3 -452049816#0 -393792173#2 -4320351#2 452098812#2 452098812#5 132182122#2 463886947#0 463886947#1 463886951#2 974153405 974153385#0 974153385#1 -475308562#2 -475308562#1 -453940107#0 -475009070#1 -475009069#0 19937698#1 19937698#2 19937698#3 725439470#4"/>
    </vehicle>
    <vehicle id="65" depart="65.00">
        <route edges="182703354#1 971660046#1 971660046#2 479769684#0 479769684#1 479769684#2 479769684#3 4889445 34144498#0 34144498#1 -453713189#2 -453713189#1"/>
    </vehicle>
    <vehicle id="66" depart="66.00">
        <route edges="971660046#2 17586859#8 17586859#9 17586859#10 -725190286#0 -971673239#2 -971673239#1 -452096884#4 -452096884#3 -972574088#1 -972574088#0 -972596442#1 -972596442#0 -972596443#0 -972596444#1 -972596444#0 -308901623#3 -972596445#0 -453998195#3 -453998195#2 308901624#2 308901624#3 308901624#6 308901624#7 972602516#1 972602516#2"/>
    </vehicle>
    <vehicle id="67" depart="67.00">
        <route edges="-465152991#2 -465152991#1 465152991#1 465152991#2 708717899#1 708717899#2 -4889437#1 -4889437#0 4886259#1 4886259#2 4886259#3 4886259#4 4886259#5 17586859#0 17586859#1 17586859#2 465153002#1 454888145 454888144#0 454888144#1 -970061627#0 -337509253#4 -337509253#2 -337509253#1 337509253#1 337509253#2"/>
    </vehicle>
    <vehicle id="68" depart="68.00">
        <route edges="-454880675#0 -330153474#2 -970061627#0 -337509253#4 -337509253#2 -337509253#1 -1057905568 -971664824 -463886945#2 -971670912#0 -337509254#2 -972574088#1 -972574088#0 -972596442#1 -972596442#0 -972596443#0 -972596444#1 -972596444#0 -308901623#3 465184061#3 465184061#4 972596449 465184058#0 465184058#1 465184058#2 465184058#3 19908073#0 19908073#1 19908073#2 4889441#2 4889441#3 4889441#4"/>
    </vehicle>
    <vehicle id="69" depart="69.00">
        <route edges="4889446#0 -127653572#1 -127653572#0 961285050 74338324#2 74338324#3 173966357#0 173966357#1 173966357#2 465152994#1 19915704#0 19915704#1 465153002#0 465153002#1 454888145 454888144#0 454888144#1 -970061627#0 -337509253#4 -337509253#2 -337509253#1 -1057905568 -971664824 -463886945#2 -971670912#0 -337509254#2 -452049816#0 -393792173#2 -4320351#2 452098812#2 452098812#5 132182122#2 463886947#0 463886947#1 463886951#2 974153405 974153385#0 974153385#1 -475308562#2"/>
    </vehicle>
    <vehicle id="70" depart="70.00">
        <route edges="337509253#1 337509253#2 337509253#4 970061627#0 -970061627#0 -337509253#4 -337509253#2 -337509253#1 -1057905568 -971664824 -463886945#2 -971670912#0 -337509254#2 452096884#3 452096884#4 971673239#1 971673239#2 725190286#0 452096883"/>
    </vehicle>
    <vehicle id="71" depart="71.00">
        <route edges="173966357#1 173966357#2 465152994#1 19915704#0 19915704#1 465153002#0 465153002#1 454888145 182703354#1 971660047#1"/>
    </vehicle>
    <vehicle id="72" depart="72.00">
        <route edges="27320317#5 27320317#6 980912054#2 337509255#1 337509255#3 337509255#4 465183712 393659689#5 393659689#6 393659689#7 393659689#8 465195716#1 465195716#2 465195716#3 19915706#0 19915706#1 13775548#0 13775548#1 13775548#3"/>
    </vehicle>
    <vehicle id="73" depart="73.00">
        <route edges="452049816#0 452096884#3 452096884#4 971673239#1 971673239#2 725190286#0 452096883 463886948#1 337509255#1 337509255#3 337509255#4 465183712 4687363#0 4687363#1 479722683#4 479722683#5 479722683#6"/>
    </vehicle>
    <vehicle id="74" depart="74.00">
        <route edges="13775548#0 13775548#1 13775548#3 453713189#1 453713189#2 173966368#3 173966368#4 173966368#5 -465195709#0 -4687363#1 -4687363#0 393659689#5 393659689#6 393659689#7 393659689#8 465152994#1 19915704#0 19915704#1 465153002#0 17586859#4 17586859#5 17586859#6 17586859#7 17586859#8 17586859#9"/>
    </vehicle>
    <vehicle id="75" depart="75.00">
        <route edges="980912058#0 27320317#8 27320317#9 27320317#10 27320317#11 27320317#12 27320317#13 972589065#1 972589065#2 -972596443#0 -972596444#1 -972596444#0 -308901623#3 465184061#3 465184061#4"/>
    </vehicle>
    <vehicle id="76" depart="76.00">
        <route edges="27394457#1 27394457#2 27394457#3 980912054#0 980912054#1 980912054#2 337509255#1 337509255#3 337509255#4 465183712 393659689#5"/>
    </vehicle>
    <vehicle id="77" depart="77.00">
        <route edges="-475308562#14 -475308562#13 475308562#13 475308562#14 475308562#17 475308562#18 308901623#3 972596444#0 972596444#1 972596443#0 452269046#2 972596442#1 972574088#0 972574088#1 452096884#3 452096884#4 971673239#1 143310627#4 143310627#5 143310627#6 143310627#7 143310627#8 143310627#9 143310627#10 143310627#11 143310627#12"/>
    </vehicle>
    <vehicle id="78" depart="78.00">
        <route edges="19915708#5 971664822#0 971664822#1 971664822#2 143310627#9 143310627#10 143310627#11 143310627#12 143310627#13 143310627#14 454888145"/>
    </vehicle>
    <vehicle id="79" depart="79.00">
        <route edges="143310627#7 143310627#8 143310627#9 143310627#10"/>
    </vehicle>
    <vehicle id="80" depart="80.00">
        <route edges="-454880675#1 -454880675#0 -330153474#2 454888149#2 454888148 330153475#0 330153475#1 17586859#4 17586859#5 -27335098#1 465153000#4"/>
    </vehicle>
    <vehicle id="81" depart="81.00">
        <route edges="143310627#6 143310627#7 143310627#8 143310627#9 143310627#10 143310627#11 143310627#12 971660046#2 17586859#8 17586859#9 17586859#10 -725190286#0 -971673239#2 -971673239#1 -452096884#4 -452096884#3 -452049816#0 -393792173#2 -4320351#2 452098812#2 132182120#1 132182120#2 972259930#1"/>
    </vehicle>
    <vehicle id="82" depart="82.00">
        <route edges="961277247 961277250#0 165321632#1 165321633#7 165321633#8 4886259#5 17586859#0 17586859#1 17586859#2 465153002#1 454888145 454888144#0 454888144#1 -970061627#0 -337509253#4 -337509253#2 -337509253#1 -1057905568 -971664824 -463886945#2"/>
    </vehicle>
    <vehicle id="83" depart="83.00">
        <route edges="143502939#1 143502939#2 -127653572#2 -127653572#1 -127653572#0 961285050 74338324#2 74338324#3 173966357#0 173966357#1 173966357#2 465152994#1 19915704#0 19915704#1 465153002#0 465153002#1 454888145 454888144#0 454888144#1 -970061627#0 -337509253#4 -337509253#2 -337509253#1 -1057905568 -971664824 -463886945#2 -971670912#0 -337509254#2 -452049816#0 -393792173#2 -4320351#2 452098812#2 452098812#5 132182122#2 463886947#0 463886947#1 463886951#2 974153405 974153385#0 974153385#1 -475308562#2 475308545#2 475308544#0"/>
    </vehicle>
    <vehicle id="84" depart="84.00">
        <route edges="143310627#11 143310627#12 971660046#2 17586859#8 17586859#9 17586859#10 -725190286#0 -971673239#2 -971673239#1 -452096884#4 -452096884#3 -972574088#1 -972574088#0 -972596442#1 -972596442#0 -972596443#0 -972596444#1 -972596444#0 -308901623#3 -475308562#18 -475308562#17 -475308562#14 -475308562#13 -475308562#8"/>
    </vehicle>
    <vehicle id="85" depart="85.00">
        <route edges="972589065#2 452269046#2 972596442#1 972574088#0 972574088#1 452096884#3 452096884#4 971673239#1 971673239#2 725190286#0 452096883 463886948#1 337509255#1 337509255#3 337509255#4 465183712 393659689#5 393659689#6 393659689#7 4889445 34144498#0 34144498#1 -453713189#2 -453713189#1 453713189#1"/>
    </vehicle>
    <vehicle id="86" depart="86.00">
        <route edges="330301757#1 -970061627#0 -337509253#4 -337509253#2 -337509253#1 4889447#0 4889447#1"/>
    </vehicle>
    <vehicle id="87" depart="87.00">
        <route edges="62154689#8 62154689#9 465152999#0 173960042#1 173960042#2 4889437#0 4889437#1 465152995 127653572#0 127653572#1"/>
    </vehicle>
    <vehicle id="88" depart="88.00">
        <route edges="-465184058#3 -465184058#2 38778037#3 38778037#4 38778037#5 38778037#6 725190286#0 452096883 463886948#1 337509255#1 337509255#3 337509255#4 465183712 4687363#0 4687363#1 465195709#0 173966368#9 19915700#1 19915700#2 27320317#1 27320317#2 27320317#3"/>
    </vehicle>
    <vehicle id="89" depart="89.00">
        <route edges="27320317#5 27320317#6 27320317#7 27320317#8 27320317#9 27320317#10 27320317#11 27320317#12 27320317#13 972589065#1 972589065#2 452269046#2 972596442#1 972574088#0 972574088#1 337509254#2 971670912#0 463886945#2 971664824 1057905568 337509253#1 337509253#2 337509253#4 970061627#0 330153474#2"/>
    </vehicle>
    <vehicle id="90" depart="90.00">
        <route edges="479769684#2 62154689#8 62154689#9 19915704#0 19915704#1 465153002#0 465153002#1 454888145 454888144#0 454888144#1 -970061627#0 -337509253#4 -337509253#2 -337509253#1 -1057905568 -971664824 -463886945#2 -971670912#0 -337509254#2 -452049816#0 -393792173#2 -4320351#2 452098812#2 452098812#5 132182122#2 463886947#0 463886947#1 475308553#0 475308553#1 475308552#0 475308550#1 475308550#2 475308546#1 475308546#2"/>
    </vehicle>
    <vehicle id="91" depart="91.00">
        <route edges="976809440#2 17588328#4 17588328#5 454888144#0 454888144#1 -970061627#0 -337509253#4 -337509253#2 -337509253#1 -1057905568 -971664824 -463886945#2 -971670912#0 -337509254#2 -972574088#1 -972574088#0 -972596442#1 -972596442#0 -972596443#0 -972596444#1 -972596444#0 -308901623#3 465184061#3 465184061#4 -465184061#4 -465184061#3"/>
    </vehicle>
    <vehicle id="92" depart="92.00">
        <route edges="27316385#1 4889447#3 971660046#1 143310627#13 143310627#14 330153475#0 330153475#1 330153475#2 465152992 465152999#0 465195716#1 465195716#2 465195716#3 19915706#0 19915706#1"/>
    </vehicle>
    <vehicle id="93" depart="93.00">
        <route edges="961277248#1 961277247 961277250#0 165321632#1 165321633#7 165321633#8 4886259#5 17586859#0 17586859#1 17586859#2 330153475#2 465152992 465152999#0 465195716#1 465195716#2 465195716#3 19915706#0 19915706#1 143502939#0 143502939#1 143502939#2"/>
    </vehicle>
    <vehicle id="95" depart="95.00">
        <route edges="27320317#4 27320317#5 27320317#6 980912054#2 337509255#1 337509255#3 337509255#4 465183712 393659689#5 393659689#6 393659689#7 4889445 112975690 173966357#2"/>
    </vehicle>
    <vehicle id="96" depart="96.00">
        <route edges="165321633#5 165321633#6 165321633#7 165321633#8 4886259#5 17586859#0 17586859#1 17586859#2 465153002#1 454888145 454888144#0 454888144#1 -970061627#0 -337509253#4 -337509253#2 -337509253#1 -1057905568 -971664824 -463886945#2 -971670912#0 -337509254#2 -972574088#1 -972574088#0 -972596442#1 -972596442#0 452269046#2 972596442#1 972574088#0"/>
    </vehicle>
    <vehicle id="98" depart="98.00">
        <route edges="452101821#2 -452101821#2 -8140255#4 -452098812#5 -452098812#2"/>
    </vehicle>
    <vehicle id="99" depart="99.00">