<?xml version="1.0" encoding="UTF-8"?>

<!-- generated on 2023-02-22 02:06:07 by Eclipse SUMO netconvert Version 1.11.0
<configuration xmlns:xsi="http://www.w3.org/2001/XMLSchema-instance" xsi:noNamespaceSchemaLocation="http://sumo.dlr.de/xsd/netconvertConfiguration.xsd">

    <input>
        <osm-files value="mtl.osm"/>
    </input>

    <output>
        <output-file value="mtl.net.xml"/>
    </output>

    <projection>
        <proj.utm value="true"/>
    </projection>

    <processing>
        <geometry.remove value="true"/>
        <roundabouts.guess value="true"/>
    </processing>

    <tls_building>
        <tls.join value="true"/>
        <tls.guess-signals value="true"/>
    </tls_building>

    <ramp_guessing>
        <ramps.guess value="true"/>
    </ramp_guessing>

    <junctions>
        <junctions.join value="true"/>
    </junctions>

    <report>
        <aggregate-warnings value="5"/>
    </report>

</configuration>
-->

<net version="1.9" junctionCornerDetail="5" limitTurnSpeed="5.50" xmlns:xsi="http://www.w3.org/2001/XMLSchema-instance" xsi:noNamespaceSchemaLocation="http://sumo.dlr.de/xsd/net_file.xsd">

    <location netOffset="-609072.22,-5040860.36" convBoundary="0.00,0.00,3805.90,1897.48" origBoundary="-73.679634,45.435850,-73.554880,45.623965" projParameter="+proj=utm +zone=18 +ellps=WGS84 +datum=WGS84 +units=m +no_defs"/>

    <type id="highway.bridleway" priority="1" numLanes="1" speed="2.78" allow="pedestrian" oneway="1" width="2.00"/>
    <type id="highway.bus_guideway" priority="1" numLanes="1" speed="27.78" allow="bus" oneway="1"/>
    <type id="highway.cycleway" priority="1" numLanes="1" speed="8.33" allow="bicycle" oneway="0" width="1.00"/>
    <type id="highway.footway" priority="1" numLanes="1" speed="2.78" allow="pedestrian" oneway="1" width="2.00"/>
    <type id="highway.ford" priority="1" numLanes="1" speed="2.78" allow="army" oneway="0"/>
    <type id="highway.living_street" priority="2" numLanes="1" speed="2.78" disallow="tram rail_urban rail rail_electric rail_fast ship" oneway="0"/>
    <type id="highway.motorway" priority="14" numLanes="2" speed="39.44" allow="private emergency authority army vip passenger hov taxi bus coach delivery truck trailer motorcycle evehicle custom1 custom2" oneway="1"/>
    <type id="highway.motorway_link" priority="9" numLanes="1" speed="22.22" allow="private emergency authority army vip passenger hov taxi bus coach delivery truck trailer motorcycle evehicle custom1 custom2" oneway="1"/>
    <type id="highway.path" priority="1" numLanes="1" speed="2.78" allow="pedestrian bicycle" oneway="0" width="2.00"/>
    <type id="highway.pedestrian" priority="1" numLanes="1" speed="2.78" allow="pedestrian" oneway="1" width="2.00"/>
    <type id="highway.primary" priority="12" numLanes="2" speed="27.78" disallow="tram rail_urban rail rail_electric rail_fast ship" oneway="0"/>
    <type id="highway.primary_link" priority="7" numLanes="1" speed="22.22" disallow="tram rail_urban rail rail_electric rail_fast ship" oneway="0"/>
    <type id="highway.raceway" priority="15" numLanes="2" speed="83.33" allow="vip" oneway="0"/>
    <type id="highway.residential" priority="3" numLanes="1" speed="13.89" disallow="tram rail_urban rail rail_electric rail_fast ship" oneway="0"/>
    <type id="highway.secondary" priority="11" numLanes="1" speed="27.78" disallow="tram rail_urban rail rail_electric rail_fast ship" oneway="0"/>
    <type id="highway.secondary_link" priority="6" numLanes="1" speed="22.22" disallow="tram rail_urban rail rail_electric rail_fast ship" oneway="0"/>
    <type id="highway.service" priority="1" numLanes="1" speed="5.56" allow="pedestrian delivery bicycle" oneway="0"/>
    <type id="highway.stairs" priority="1" numLanes="1" speed="1.39" allow="pedestrian" oneway="1" width="2.00"/>
    <type id="highway.step" priority="1" numLanes="1" speed="1.39" allow="pedestrian" oneway="1" width="2.00"/>
    <type id="highway.steps" priority="1" numLanes="1" speed="1.39" allow="pedestrian" oneway="1" width="2.00"/>
    <type id="highway.tertiary" priority="10" numLanes="1" speed="22.22" disallow="tram rail_urban rail rail_electric rail_fast ship" oneway="0"/>
    <type id="highway.tertiary_link" priority="5" numLanes="1" speed="22.22" disallow="tram rail_urban rail rail_electric rail_fast ship" oneway="0"/>
    <type id="highway.track" priority="1" numLanes="1" speed="5.56" allow="pedestrian motorcycle moped bicycle" oneway="0"/>
    <type id="highway.trunk" priority="13" numLanes="2" speed="27.78" disallow="pedestrian bicycle tram rail_urban rail rail_electric rail_fast ship" oneway="0"/>
    <type id="highway.trunk_link" priority="8" numLanes="1" speed="22.22" disallow="pedestrian bicycle tram rail_urban rail rail_electric rail_fast ship" oneway="0"/>
    <type id="highway.unclassified" priority="4" numLanes="1" speed="13.89" disallow="tram rail_urban rail rail_electric rail_fast ship" oneway="0"/>
    <type id="highway.unsurfaced" priority="1" numLanes="1" speed="8.33" disallow="tram rail_urban rail rail_electric rail_fast ship" oneway="0"/>
    <type id="railway.highspeed" priority="21" numLanes="1" speed="69.44" allow="rail_fast" oneway="1"/>
    <type id="railway.light_rail" priority="19" numLanes="1" speed="27.78" allow="rail_urban" oneway="1"/>
    <type id="railway.preserved" priority="16" numLanes="1" speed="27.78" allow="rail" oneway="1"/>
    <type id="railway.rail" priority="20" numLanes="1" speed="44.44" allow="rail" oneway="1"/>
    <type id="railway.subway" priority="18" numLanes="1" speed="27.78" allow="rail_urban" oneway="1"/>
    <type id="railway.tram" priority="17" numLanes="1" speed="13.89" allow="tram" oneway="1"/>

    <edge id=":10080566466_0" function="internal">
        <lane id=":10080566466_0_0" index="0" allow="bicycle" speed="8.33" length="4.00" width="1.00" shape="2254.82,1481.58 2251.18,1479.94"/>
    </edge>
    <edge id=":10080566466_1" function="internal">
        <lane id=":10080566466_1_0" index="0" allow="bicycle" speed="2.04" length="1.46" width="1.00" shape="2254.82,1481.58 2254.58,1481.20 2254.57,1480.92 2254.79,1480.74 2255.23,1480.67"/>
    </edge>
    <edge id=":10080566466_2" function="internal">
        <lane id=":10080566466_2_0" index="0" allow="bicycle" speed="8.33" length="3.99" width="1.00" shape="2251.59,1479.03 2255.23,1480.67"/>
    </edge>
    <edge id=":10080566466_3" function="internal">
        <lane id=":10080566466_3_0" index="0" allow="bicycle" speed="2.04" length="1.46" width="1.00" shape="2251.59,1479.03 2251.83,1479.41 2251.84,1479.69 2251.62,1479.86 2251.18,1479.94"/>
    </edge>
    <edge id=":10080566466_4" function="internal">
        <lane id=":10080566466_4_0" index="0" allow="bicycle" speed="3.82" length="3.22" width="1.00" shape="2252.12,1482.58 2252.40,1481.73 2252.33,1481.01 2251.92,1480.41 2251.18,1479.94"/>
    </edge>
    <edge id=":10080566466_5" function="internal">
        <lane id=":10080566466_5_0" index="0" allow="bicycle" speed="4.36" length="4.08" width="1.00" shape="2252.12,1482.58 2252.82,1481.44 2253.57,1480.75 2254.37,1480.49 2255.23,1480.67"/>
    </edge>
    <edge id=":10131321481_0" function="internal">
        <lane id=":10131321481_0_0" index="0" allow="bicycle" speed="8.33" length="5.00" width="1.00" shape="1370.00,1423.40 1365.74,1426.03"/>
    </edge>
    <edge id=":10131321481_1" function="internal">
        <lane id=":10131321481_1_0" index="0" allow="bicycle" speed="4.31" length="4.07" width="1.00" shape="1370.00,1423.40 1368.81,1423.98 1367.82,1424.15 1367.01,1423.92 1366.38,1423.27"/>
    </edge>
    <edge id=":10131321481_2" function="internal">
        <lane id=":10131321481_2_0" index="0" allow="bicycle" speed="4.29" length="4.07" width="1.00" shape="1367.23,1422.74 1367.54,1423.59 1367.39,1424.41 1366.79,1425.23 1365.74,1426.03"/>
    </edge>
    <edge id=":10131321481_3" function="internal">
        <lane id=":10131321481_3_0" index="0" allow="bicycle" speed="2.04" length="1.46" width="1.00" shape="1367.23,1422.74 1367.22,1423.19 1367.07,1423.43 1366.79,1423.46 1366.38,1423.27"/>
    </edge>
    <edge id=":1038385632_0" function="internal">
        <lane id=":1038385632_0_0" index="0" allow="pedestrian delivery bicycle" speed="6.12" length="7.78" shape="1158.21,653.64 1157.85,652.26 1158.36,650.81 1159.74,649.28 1161.99,647.69"/>
    </edge>
    <edge id=":1038385632_1" function="internal">
        <lane id=":1038385632_1_0" index="0" allow="pedestrian delivery bicycle" speed="3.65" length="4.67" shape="1158.21,653.64 1158.29,652.20 1158.78,651.45 1159.67,651.39 1160.97,652.02"/>
    </edge>
    <edge id=":1038385632_2" function="internal">
        <lane id=":1038385632_2_0" index="0" disallow="tram rail_urban rail rail_electric rail_fast ship" speed="8.33" length="9.40" shape="1153.96,652.57 1161.99,647.69"/>
    </edge>
    <edge id=":1038385632_3" function="internal">
        <lane id=":1038385632_3_0" index="0" allow="pedestrian delivery bicycle" speed="6.07" length="7.80" shape="1153.96,652.57 1156.42,651.31 1158.41,650.79 1159.93,651.03 1160.97,652.02"/>
    </edge>
    <edge id=":1038385651_0" function="internal">
        <lane id=":1038385651_0_0" index="0" allow="pedestrian delivery bicycle" speed="5.06" length="4.98" shape="1183.03,695.50 1182.14,694.47 1181.13,693.97 1180.00,693.99 1178.75,694.53"/>
    </edge>
    <edge id=":1038385651_1" function="internal">
        <lane id=":1038385651_1_0" index="0" allow="pedestrian delivery bicycle" speed="5.56" length="9.34" shape="1183.03,695.50 1178.14,687.55"/>
    </edge>
    <edge id=":1038385651_2" function="internal">
        <lane id=":1038385651_2_0" index="0" allow="pedestrian delivery bicycle" speed="3.65" length="4.67" shape="1183.03,695.50 1183.05,694.06 1183.51,693.29 1184.40,693.20 1185.72,693.77"/>
    </edge>
    <edge id=":1038385651_3" function="internal">
        <lane id=":1038385651_3_0" index="0" allow="pedestrian delivery bicycle" speed="5.56" length="9.21" shape="1180.90,685.93 1185.72,693.77"/>
    </edge>
    <edge id=":1038385651_4" function="internal">
        <lane id=":1038385651_4_0" index="0" allow="pedestrian delivery bicycle" speed="5.56" length="10.06" shape="1180.90,685.93 1181.94,688.47 1181.93,690.75 1180.87,692.77 1178.75,694.53"/>
    </edge>
    <edge id=":1038385651_5" function="internal">
        <lane id=":1038385651_5_0" index="0" allow="pedestrian delivery bicycle" speed="3.65" length="4.67" shape="1180.90,685.93 1180.81,687.37 1180.33,688.12 1179.43,688.18 1178.14,687.55"/>
    </edge>
    <edge id=":1038385651_6" function="internal">
        <lane id=":1038385651_6_0" index="0" allow="pedestrian delivery bicycle" speed="5.07" length="4.98" shape="1177.07,691.81 1178.12,690.94 1178.65,689.94 1178.65,688.81 1178.14,687.55"/>
    </edge>
    <edge id=":1038385651_7" function="internal">
        <lane id=":1038385651_7_0" index="0" allow="pedestrian delivery bicycle" speed="5.56" length="10.07" shape="1177.07,691.81 1179.60,690.71 1181.88,690.67 1183.92,691.69 1185.72,693.77"/>
    </edge>
    <edge id=":1038385651_8" function="internal">
        <lane id=":1038385651_8_0" index="0" allow="pedestrian delivery bicycle" speed="3.65" length="4.67" shape="1177.07,691.81 1178.51,691.86 1179.28,692.33 1179.35,693.22 1178.75,694.53"/>
    </edge>
    <edge id=":1038385708_0" function="internal">
        <lane id=":1038385708_0_0" index="0" allow="pedestrian delivery bicycle" speed="5.56" length="9.46" shape="1023.30,793.91 1018.50,785.76"/>
    </edge>
    <edge id=":1038385708_1" function="internal">
        <lane id=":1038385708_1_0" index="0" allow="pedestrian delivery bicycle" speed="5.56" length="10.20" shape="1023.30,793.91 1022.24,791.36 1022.26,789.06 1023.35,787.02 1025.52,785.22"/>
    </edge>
    <edge id=":1038385708_2" function="internal">
        <lane id=":1038385708_2_0" index="0" allow="pedestrian delivery bicycle" speed="3.65" length="4.67" shape="1023.30,793.91 1023.37,792.47 1023.85,791.72 1024.74,791.65 1026.04,792.27"/>
    </edge>
    <edge id=":1038385708_3" function="internal">
        <lane id=":1038385708_3_0" index="0" allow="pedestrian delivery bicycle" speed="5.10" length="5.09" shape="1027.20,787.94 1026.10,788.85 1025.54,789.87 1025.53,791.01 1026.04,792.27"/>
    </edge>
    <edge id=":1038385708_4" function="internal">
        <lane id=":1038385708_4_0" index="0" allow="pedestrian delivery bicycle" speed="5.56" length="10.29" shape="1027.20,787.94 1024.60,789.07 1022.29,789.08 1020.25,787.98 1018.50,785.76"/>
    </edge>
    <edge id=":1038385708_5" function="internal">
        <lane id=":1038385708_5_0" index="0" allow="pedestrian delivery bicycle" speed="3.65" length="4.67" shape="1027.20,787.94 1025.76,787.89 1025.00,787.42 1024.92,786.53 1025.52,785.22"/>
    </edge>
    <edge id=":1038385708_6" function="internal">
        <lane id=":1038385708_6_0" index="0" allow="pedestrian delivery bicycle" speed="5.01" length="5.03" shape="1021.27,784.15 1022.12,785.24 1023.12,785.78 1024.25,785.77 1025.52,785.22"/>
    </edge>
    <edge id=":1038385708_7" function="internal">
        <lane id=":1038385708_7_0" index="0" allow="pedestrian delivery bicycle" speed="5.56" length="9.42" shape="1021.27,784.15 1026.04,792.27"/>
    </edge>
    <edge id=":1038385708_8" function="internal">
        <lane id=":1038385708_8_0" index="0" allow="pedestrian delivery bicycle" speed="3.65" length="4.67" shape="1021.27,784.15 1021.18,785.59 1020.69,786.34 1019.79,786.39 1018.50,785.76"/>
    </edge>
    <edge id=":1038385761_0" function="internal">
        <lane id=":1038385761_0_0" index="0" allow="pedestrian delivery bicycle" speed="5.56" length="12.65" shape="1211.44,739.97 1204.70,729.25"/>
    </edge>
    <edge id=":1038385761_1" function="internal">
        <lane id=":1038385761_1_0" index="0" allow="pedestrian delivery bicycle" speed="6.07" length="7.79" shape="1211.44,739.97 1211.05,738.59 1211.55,737.14 1212.94,735.62 1215.21,734.03"/>
    </edge>
    <edge id=":1038385761_2" function="internal">
        <lane id=":1038385761_2_0" index="0" allow="pedestrian delivery bicycle" speed="3.65" length="4.67" shape="1211.44,739.97 1211.49,738.53 1211.96,737.77 1212.85,737.69 1214.16,738.29"/>
    </edge>
    <edge id=":1038385761_3" function="internal">
        <lane id=":1038385761_3_0" index="0" allow="pedestrian delivery bicycle" speed="5.20" length="5.26" shape="1207.40,727.52 1208.33,728.60 1209.39,729.12 1210.59,729.10 1211.92,728.54"/>
    </edge>
    <edge id=":1038385761_4" function="internal">
        <lane id=":1038385761_4_0" index="0" allow="pedestrian delivery bicycle" speed="5.56" length="12.72" shape="1207.40,727.52 1214.16,738.29"/>
    </edge>
    <edge id=":1038385761_5" function="internal">
        <lane id=":1038385761_5_0" index="0" allow="pedestrian delivery bicycle" speed="3.65" length="4.67" shape="1207.40,727.52 1207.37,728.97 1206.92,729.73 1206.03,729.83 1204.70,729.25"/>
    </edge>
    <edge id=":1038385761_6" function="internal">
        <lane id=":1038385761_6_0" index="0" allow="pedestrian delivery bicycle" speed="5.03" length="5.02" shape="1203.74,733.53 1204.80,732.65 1205.31,731.64 1205.28,730.51 1204.70,729.25"/>
    </edge>
    <edge id=":1038385761_7" function="internal">
        <lane id=":1038385761_7_0" index="0" disallow="tram rail_urban rail rail_electric rail_fast ship" speed="11.11" length="9.53" shape="1203.74,733.53 1211.92,728.54"/>
        <lane id=":1038385761_7_1" index="1" disallow="tram rail_urban rail rail_electric rail_fast ship" speed="11.11" length="9.53" shape="1205.43,736.25 1213.57,731.29"/>
        <lane id=":1038385761_7_2" index="2" disallow="tram rail_urban rail rail_electric rail_fast ship" speed="11.11" length="9.53" shape="1207.12,738.97 1215.21,734.03"/>
    </edge>
    <edge id=":1038385761_10" function="internal">
        <lane id=":1038385761_10_0" index="0" allow="pedestrian delivery bicycle" speed="6.09" length="7.82" shape="1207.12,738.97 1209.59,737.66 1211.58,737.12 1213.11,737.33 1214.16,738.29"/>
    </edge>
    <edge id=":1038399314_0" function="internal">
        <lane id=":1038399314_0_0" index="0" allow="pedestrian delivery bicycle" speed="5.01" length="5.03" shape="1234.75,778.14 1233.90,777.06 1232.90,776.52 1231.77,776.52 1230.50,777.08"/>
    </edge>
    <edge id=":1038399314_1" function="internal">
        <lane id=":1038399314_1_0" index="0" allow="pedestrian delivery bicycle" speed="5.56" length="9.44" shape="1234.75,778.14 1229.91,770.04"/>
    </edge>
    <edge id=":1038399314_2" function="internal">
        <lane id=":1038399314_2_0" index="0" allow="pedestrian delivery bicycle" speed="3.65" length="4.67" shape="1234.75,778.14 1234.84,776.70 1235.34,775.96 1236.23,775.90 1237.52,776.54"/>
    </edge>
    <edge id=":1038399314_3" function="internal">
        <lane id=":1038399314_3_0" index="0" allow="pedestrian delivery bicycle" speed="5.56" length="9.52" shape="1232.64,768.36 1237.52,776.54"/>
    </edge>
    <edge id=":1038399314_4" function="internal">
        <lane id=":1038399314_4_0" index="0" allow="pedestrian delivery bicycle" speed="5.56" length="10.23" shape="1232.64,768.36 1233.74,770.91 1233.75,773.22 1232.67,775.27 1230.50,777.08"/>
    </edge>
    <edge id=":1038399314_5" function="internal">
        <lane id=":1038399314_5_0" index="0" allow="pedestrian delivery bicycle" speed="3.65" length="4.67" shape="1232.64,768.36 1232.59,769.80 1232.12,770.56 1231.22,770.64 1229.91,770.04"/>
    </edge>
    <edge id=":1038399314_6" function="internal">
        <lane id=":1038399314_6_0" index="0" allow="pedestrian delivery bicycle" speed="5.08" length="5.08" shape="1228.82,774.36 1229.90,773.46 1230.45,772.43 1230.45,771.30 1229.91,770.04"/>
    </edge>
    <edge id=":1038399314_7" function="internal">
        <lane id=":1038399314_7_0" index="0" allow="pedestrian delivery bicycle" speed="5.56" length="10.30" shape="1228.82,774.36 1231.41,773.22 1233.73,773.21 1235.77,774.31 1237.52,776.54"/>
    </edge>
    <edge id=":1038399314_8" function="internal">
        <lane id=":1038399314_8_0" index="0" allow="pedestrian delivery bicycle" speed="3.65" length="4.67" shape="1228.82,774.36 1230.26,774.40 1231.02,774.87 1231.10,775.77 1230.50,777.08"/>
    </edge>
    <edge id=":1038399336_0" function="internal">
        <lane id=":1038399336_0_0" index="0" allow="pedestrian delivery bicycle" speed="5.10" length="5.09" shape="1039.34,898.23 1038.43,897.17 1037.40,896.66 1036.25,896.69 1034.97,897.25"/>
    </edge>
    <edge id=":1038399336_1" function="internal">
        <lane id=":1038399336_1_0" index="0" disallow="tram rail_urban rail rail_electric rail_fast ship" speed="8.33" length="9.46" shape="1039.34,898.23 1034.24,890.26"/>
    </edge>
    <edge id=":1038399336_2" function="internal">
        <lane id=":1038399336_2_0" index="0" allow="pedestrian delivery bicycle" speed="6.06" length="7.83" shape="1039.34,898.23 1038.02,895.79 1037.46,893.80 1037.68,892.28 1038.67,891.22"/>
    </edge>
    <edge id=":1038399336_3" function="internal">
        <lane id=":1038399336_3_0" index="0" allow="pedestrian delivery bicycle" speed="5.56" length="6.29" shape="1040.33,893.95 1034.97,897.25"/>
    </edge>
    <edge id=":1038399336_4" function="internal">
        <lane id=":1038399336_4_0" index="0" allow="pedestrian delivery bicycle" speed="6.16" length="7.85" shape="1040.33,893.95 1038.94,894.33 1037.47,893.84 1035.90,892.49 1034.24,890.26"/>
    </edge>
    <edge id=":1038399336_5" function="internal">
        <lane id=":1038399336_5_0" index="0" allow="pedestrian delivery bicycle" speed="3.65" length="4.67" shape="1040.33,893.95 1038.89,893.89 1038.13,893.41 1038.06,892.52 1038.67,891.22"/>
    </edge>
    <edge id=":1038399336_6" function="internal">
        <lane id=":1038399336_6_0" index="0" allow="pedestrian delivery bicycle" speed="5.03" length="5.01" shape="1033.28,894.54 1034.33,893.65 1034.84,892.64 1034.81,891.51 1034.24,890.26"/>
    </edge>
    <edge id=":1038399336_7" function="internal">
        <lane id=":1038399336_7_0" index="0" allow="pedestrian delivery bicycle" speed="5.56" length="6.34" shape="1033.28,894.54 1038.67,891.22"/>
    </edge>
    <edge id=":1038399336_8" function="internal">
        <lane id=":1038399336_8_0" index="0" allow="pedestrian delivery bicycle" speed="3.65" length="4.67" shape="1033.28,894.54 1034.72,894.58 1035.48,895.05 1035.56,895.94 1034.97,897.25"/>
    </edge>
    <edge id=":10565155628_0" function="internal">
        <lane id=":10565155628_0_0" index="0" allow="pedestrian delivery bicycle" speed="3.65" length="4.67" shape="1467.69,877.44 1467.63,878.88 1467.15,879.64 1466.26,879.71 1464.95,879.09"/>
    </edge>
    <edge id=":10646892625_0" function="internal">
        <lane id=":10646892625_0_0" index="0" disallow="tram rail_urban rail rail_electric rail_fast ship" speed="8.33" length="2.82" shape="1554.42,783.94 1552.05,785.49"/>
    </edge>
    <edge id=":10646892626_0" function="internal">
        <lane id=":10646892626_0_0" index="0" disallow="tram rail_urban rail rail_electric rail_fast ship" speed="8.33" length="2.93" shape="1545.65,781.82 1547.17,784.31"/>
    </edge>
    <edge id=":10646892627_0" function="internal">
        <lane id=":10646892627_0_0" index="0" disallow="tram rail_urban rail rail_electric rail_fast ship" speed="13.89" length="3.77" shape="1579.77,761.94 1577.87,758.68"/>
    </edge>
    <edge id=":124530440_0" function="internal">
        <lane id=":124530440_0_0" index="0" disallow="tram rail_urban rail rail_electric rail_fast ship" speed="6.61" length="8.65" shape="791.26,1446.43 792.88,1448.15 794.68,1449.00 796.66,1449.00 798.81,1448.14"/>
    </edge>
    <edge id=":124530440_1" function="internal">
        <lane id=":124530440_1_0" index="0" disallow="tram rail_urban rail rail_electric rail_fast ship" speed="8.33" length="10.82" shape="789.75,1454.03 792.24,1452.20 794.15,1450.90 796.13,1449.69 798.81,1448.14"/>
    </edge>
    <edge id=":1287009161_0" function="internal">
        <lane id=":1287009161_0_0" index="0" allow="pedestrian delivery bicycle" speed="5.56" length="9.45" shape="1600.33,1220.87 1595.46,1212.77"/>
    </edge>
    <edge id=":1287009161_1" function="internal">
        <lane id=":1287009161_1_0" index="0" allow="pedestrian delivery bicycle" speed="5.56" length="10.35" shape="1600.33,1220.87 1599.21,1218.25 1599.22,1215.92 1600.36,1213.90 1602.63,1212.17"/>
    </edge>
    <edge id=":1287009161_2" function="internal">
        <lane id=":1287009161_2_0" index="0" allow="pedestrian delivery bicycle" speed="3.65" length="4.67" shape="1600.33,1220.87 1600.39,1219.43 1600.87,1218.67 1601.76,1218.59 1603.07,1219.20"/>
    </edge>
    <edge id=":1287009161_3" function="internal">
        <lane id=":1287009161_3_0" index="0" allow="pedestrian delivery bicycle" speed="5.00" length="5.05" shape="1604.19,1214.96 1603.08,1215.81 1602.52,1216.79 1602.52,1217.93 1603.07,1219.20"/>
    </edge>
    <edge id=":1287009161_4" function="internal">
        <lane id=":1287009161_4_0" index="0" allow="pedestrian delivery bicycle" speed="5.56" length="10.20" shape="1604.19,1214.96 1601.55,1215.99 1599.22,1215.97 1597.19,1214.89 1595.46,1212.77"/>
    </edge>
    <edge id=":1287009161_5" function="internal">
        <lane id=":1287009161_5_0" index="0" allow="pedestrian delivery bicycle" speed="3.65" length="4.67" shape="1604.19,1214.96 1602.75,1214.85 1602.01,1214.35 1601.97,1213.45 1602.63,1212.17"/>
    </edge>
    <edge id=":1287009161_6" function="internal">
        <lane id=":1287009161_6_0" index="0" allow="pedestrian delivery bicycle" speed="5.14" length="5.14" shape="1598.21,1211.13 1599.07,1212.18 1600.10,1212.71 1601.28,1212.70 1602.63,1212.17"/>
    </edge>
    <edge id=":1287009161_7" function="internal">
        <lane id=":1287009161_7_0" index="0" allow="pedestrian delivery bicycle" speed="5.56" length="9.42" shape="1598.21,1211.13 1603.07,1219.20"/>
    </edge>
    <edge id=":1287009161_8" function="internal">
        <lane id=":1287009161_8_0" index="0" allow="pedestrian delivery bicycle" speed="3.65" length="4.67" shape="1598.21,1211.13 1598.14,1212.57 1597.65,1213.33 1596.76,1213.39 1595.46,1212.77"/>
    </edge>
    <edge id=":1345062960_0" function="internal">
        <lane id=":1345062960_0_0" index="0" allow="pedestrian delivery bicycle" speed="5.01" length="5.03" shape="2095.97,839.21 2094.91,840.10 2094.41,841.12 2094.46,842.25 2095.06,843.50"/>
    </edge>
    <edge id=":1345062960_1" function="internal">
        <lane id=":1345062960_1_0" index="0" allow="pedestrian delivery bicycle" speed="5.56" length="6.36" shape="2095.97,839.21 2090.56,842.55"/>
    </edge>
    <edge id=":1345062960_2" function="internal">
        <lane id=":1345062960_2_0" index="0" allow="pedestrian delivery bicycle" speed="3.65" length="4.67" shape="2095.97,839.21 2094.52,839.17 2093.76,838.71 2093.67,837.82 2094.25,836.50"/>
    </edge>
    <edge id=":1345062960_3" function="internal">
        <lane id=":1345062960_3_0" index="0" allow="pedestrian delivery bicycle" speed="5.06" length="5.07" shape="2089.92,835.55 2090.81,836.60 2091.83,837.11 2092.98,837.08 2094.25,836.50"/>
    </edge>
    <edge id=":1345062960_4" function="internal">
        <lane id=":1345062960_4_0" index="0" disallow="tram rail_urban rail rail_electric rail_fast ship" speed="8.33" length="9.46" shape="2089.92,835.55 2095.06,843.50"/>
    </edge>
    <edge id=":1345062960_5" function="internal">
        <lane id=":1345062960_5_0" index="0" allow="pedestrian delivery bicycle" speed="6.07" length="7.79" shape="2089.92,835.55 2091.22,838.00 2091.75,839.98 2091.53,841.50 2090.56,842.55"/>
    </edge>
    <edge id=":1345062960_6" function="internal">
        <lane id=":1345062960_6_0" index="0" allow="pedestrian delivery bicycle" speed="5.56" length="6.29" shape="2088.90,839.82 2094.25,836.50"/>
    </edge>
    <edge id=":1345062960_7" function="internal">
        <lane id=":1345062960_7_0" index="0" allow="pedestrian delivery bicycle" speed="6.22" length="7.86" shape="2088.90,839.82 2090.27,839.45 2091.75,839.94 2093.35,841.29 2095.06,843.50"/>
    </edge>
    <edge id=":1345062960_8" function="internal">
        <lane id=":1345062960_8_0" index="0" allow="pedestrian delivery bicycle" speed="3.65" length="4.67" shape="2088.90,839.82 2090.34,839.88 2091.10,840.36 2091.17,841.25 2090.56,842.55"/>
    </edge>
    <edge id=":1345062962_0" function="internal">
        <lane id=":1345062962_0_0" index="0" allow="pedestrian delivery bicycle" speed="3.65" length="4.67" shape="2351.39,674.58 2352.83,674.66 2353.58,675.14 2353.64,676.03 2353.02,677.33"/>
    </edge>
    <edge id=":1417691416_0" function="internal">
        <lane id=":1417691416_0_0" index="0" disallow="pedestrian tram rail_urban rail rail_electric rail_fast ship" speed="8.33" length="7.08" shape="1375.12,1400.15 1374.12,1398.35 1373.75,1396.97 1373.66,1395.49 1373.51,1393.39"/>
    </edge>
    <edge id=":1454537655_0" function="internal">
        <lane id=":1454537655_0_0" index="0" disallow="pedestrian tram rail_urban rail rail_electric rail_fast ship" speed="11.11" length="0.12" shape="1760.23,1438.90 1760.20,1438.92 1760.17,1438.92 1760.15,1438.93 1760.12,1438.95"/>
    </edge>
    <edge id=":1454537655_1" function="internal">
        <lane id=":1454537655_1_0" index="0" disallow="pedestrian tram rail_urban rail rail_electric rail_fast ship" speed="11.11" length="0.33" shape="1758.25,1436.37 1758.53,1436.19"/>
    </edge>
    <edge id=":1457410963_0" function="internal">
        <lane id=":1457410963_0_0" index="0" allow="pedestrian delivery bicycle" speed="5.56" length="6.22" shape="1770.62,1644.66 1767.35,1639.37"/>
    </edge>
    <edge id=":1457410963_1" function="internal">
        <lane id=":1457410963_1_0" index="0" allow="pedestrian delivery bicycle" speed="6.09" length="7.77" shape="1770.62,1644.66 1770.24,1643.30 1770.73,1641.85 1772.10,1640.31 1774.34,1638.69"/>
    </edge>
    <edge id=":1457410963_2" function="internal">
        <lane id=":1457410963_2_0" index="0" allow="pedestrian delivery bicycle" speed="3.65" length="4.67" shape="1770.62,1644.66 1770.67,1643.22 1771.14,1642.46 1772.03,1642.38 1773.34,1642.98"/>
    </edge>
    <edge id=":1457410963_3" function="internal">
        <lane id=":1457410963_3_0" index="0" allow="pedestrian delivery bicycle" speed="5.04" length="5.00" shape="1770.08,1637.69 1770.95,1638.74 1771.96,1639.26 1773.09,1639.24 1774.34,1638.69"/>
    </edge>
    <edge id=":1457410963_4" function="internal">
        <lane id=":1457410963_4_0" index="0" allow="pedestrian delivery bicycle" speed="5.56" length="6.22" shape="1770.08,1637.69 1773.34,1642.98"/>
    </edge>
    <edge id=":1457410963_5" function="internal">
        <lane id=":1457410963_5_0" index="0" allow="pedestrian delivery bicycle" speed="3.65" length="4.67" shape="1770.08,1637.69 1770.02,1639.13 1769.55,1639.89 1768.66,1639.97 1767.35,1639.37"/>
    </edge>
    <edge id=":1457410963_6" function="internal">
        <lane id=":1457410963_6_0" index="0" allow="pedestrian delivery bicycle" speed="5.05" length="5.02" shape="1766.35,1643.66 1767.40,1642.77 1767.92,1641.76 1767.90,1640.63 1767.35,1639.37"/>
    </edge>
    <edge id=":1457410963_7" function="internal">
        <lane id=":1457410963_7_0" index="0" disallow="tram rail_urban rail rail_electric rail_fast ship" speed="8.33" length="9.41" shape="1766.35,1643.66 1774.34,1638.69"/>
    </edge>
    <edge id=":1457410963_8" function="internal">
        <lane id=":1457410963_8_0" index="0" allow="pedestrian delivery bicycle" speed="6.08" length="7.76" shape="1766.35,1643.66 1768.80,1642.37 1770.78,1641.82 1772.29,1642.03 1773.34,1642.98"/>
    </edge>
    <edge id=":1528884541_0" function="internal">
        <lane id=":1528884541_0_0" index="0" allow="pedestrian delivery bicycle" speed="5.56" length="6.23" shape="721.82,911.58 718.61,906.24"/>
    </edge>
    <edge id=":1528884541_1" function="internal">